data/pglib_opf_case4020_goc_storage.m
%%%%%%%%%%%%%%%%%%%%%%%%%%%%%%%%%%%%%%%%%%%%%%%%%%%%%%%%%%%%%%%%%%%%%%%%%%%
%%%%                                                                  %%%%%
%%%%    IEEE PES Power Grid Library - Optimal Power Flow - v23.07     %%%%%
%%%%          (https://github.com/power-grid-lib/pglib-opf)           %%%%%
%%%%               Benchmark Group - Typical Operations               %%%%%
%%%%                         23 - July - 2023                         %%%%%
%%%%                                                                  %%%%%
%%%%%%%%%%%%%%%%%%%%%%%%%%%%%%%%%%%%%%%%%%%%%%%%%%%%%%%%%%%%%%%%%%%%%%%%%%%
%
%   A 4,020 bus model created by the Sustainable Data Evolution Technology (SDET)
%   tool for use in ARPA-e's Grid Optimization Competition, Challenge 1.
%
%   https://gocompetition.energy.gov/challenges/22/datasets
%
%   Developed by Renke Huang and Ahmad Tbaileh,
%   Pacific Northwest National Laboratory, U.S.A.
%   Provided in the public domain. February, 2020
%
% Modified to have additional storage capacity and increased gencost
function mpc = pglib_opf_case4020_goc
mpc.version = '2';
mpc.baseMVA = 100.0;

%% bus data
%	bus_i	type	Pd	Qd	Gs	Bs	area	Vm	Va	baseKV	zone	Vmax	Vmin
mpc.bus = [
	35308	 2	 0.0	 0.0	 0.0	 0.0	 1	    1.00000	    0.00000	 500.0	 1	    1.10000	    0.90000;
	35309	 2	 0.0	 0.0	 0.0	 0.0	 1	    1.00000	    0.00000	 500.0	 1	    1.10000	    0.90000;
	35310	 2	 0.0	 0.0	 0.0	 0.0	 1	    1.00000	    0.00000	 500.0	 1	    1.10000	    0.90000;
	35311	 2	 0.0	 0.0	 0.0	 0.0	 1	    1.00000	    0.00000	 500.0	 1	    1.10000	    0.90000;
	35312	 1	 0.0	 0.0	 0.0	 0.0	 1	    1.00000	    0.00000	 500.0	 1	    1.10000	    0.90000;
	35313	 1	 0.0	 0.0	 0.0	 0.0	 1	    1.00000	    0.00000	 500.0	 1	    1.10000	    0.90000;
	35314	 1	 0.0	 0.0	 0.0	 0.0	 1	    1.00000	    0.00000	 500.0	 1	    1.10000	    0.90000;
	35315	 1	 0.0	 0.0	 0.0	 0.0	 1	    1.00000	    0.00000	 500.0	 1	    1.10000	    0.90000;
	35316	 2	 0.0	 0.0	 0.0	 0.0	 1	    1.00000	    0.00000	 500.0	 1	    1.10000	    0.90000;
	35317	 1	 0.0	 0.0	 0.0	 0.0	 1	    1.00000	    0.00000	 500.0	 1	    1.10000	    0.90000;
	35318	 1	 0.0	 0.0	 0.0	 0.0	 1	    1.00000	    0.00000	 500.0	 1	    1.10000	    0.90000;
	35319	 1	 0.0	 0.0	 0.0	 0.0	 1	    1.00000	    0.00000	 500.0	 1	    1.10000	    0.90000;
	35320	 1	 0.0	 0.0	 0.0	 0.0	 1	    1.00000	    0.00000	 500.0	 1	    1.10000	    0.90000;
	35321	 1	 0.0	 0.0	 0.0	 0.0	 1	    1.00000	    0.00000	 500.0	 1	    1.10000	    0.90000;
	35322	 2	 0.0	 0.0	 0.0	 0.0	 1	    1.00000	    0.00000	 500.0	 1	    1.10000	    0.90000;
	35323	 2	 0.0	 0.0	 0.0	 0.0	 1	    1.00000	    0.00000	 500.0	 1	    1.10000	    0.90000;
	35324	 1	 0.0	 0.0	 0.0	 0.0	 1	    1.00000	    0.00000	 500.0	 1	    1.10000	    0.90000;
	35325	 1	 0.0	 0.0	 0.0	 0.0	 1	    1.00000	    0.00000	 500.0	 1	    1.10000	    0.90000;
	35326	 2	 0.0	 0.0	 0.0	 0.0	 1	    1.00000	    0.00000	 138.0	 1	    1.10000	    0.90000;
	35327	 1	 0.0	 0.0	 0.0	 0.0	 1	    1.00000	    0.00000	 500.0	 1	    1.10000	    0.90000;
	35328	 1	 0.0	 0.0	 0.0	 0.0	 1	    1.00000	    0.00000	 138.0	 1	    1.10000	    0.90000;
	35329	 1	 0.0	 0.0	 0.0	 0.0	 1	    1.00000	    0.00000	 500.0	 1	    1.10000	    0.90000;
	35330	 2	 0.0	 0.0	 0.0	 0.0	 1	    1.00000	    0.00000	 138.0	 1	    1.10000	    0.90000;
	35331	 2	 0.0	 0.0	 0.0	 0.0	 1	    1.00000	    0.00000	 138.0	 1	    1.10000	    0.90000;
	35332	 2	 0.0	 0.0	 0.0	 0.0	 1	    1.00000	    0.00000	 138.0	 1	    1.10000	    0.90000;
	35333	 2	 0.0	 0.0	 0.0	 0.0	 1	    1.00000	    0.00000	 500.0	 1	    1.10000	    0.90000;
	35334	 1	 0.0	 0.0	 0.0	 0.0	 1	    1.00000	    0.00000	 230.0	 1	    1.10000	    0.90000;
	35335	 2	 0.0	 0.0	 0.0	 0.0	 1	    1.00000	    0.00000	 138.0	 1	    1.10000	    0.90000;
	35336	 2	 0.0	 0.0	 0.0	 0.0	 1	    1.00000	    0.00000	 138.0	 1	    1.10000	    0.90000;
	35337	 2	 0.0	 0.0	 0.0	 0.0	 1	    1.00000	    0.00000	 138.0	 1	    1.10000	    0.90000;
	35338	 1	 0.0	 0.0	 0.0	 0.0	 1	    1.00000	    0.00000	 345.0	 1	    1.10000	    0.90000;
	35339	 1	 0.0	 0.0	 0.0	 0.0	 1	    1.00000	    0.00000	 500.0	 1	    1.10000	    0.90000;
	35340	 1	 0.0	 0.0	 0.0	 0.0	 1	    1.00000	    0.00000	 345.0	 1	    1.10000	    0.90000;
	35341	 1	 0.0	 0.0	 0.0	 0.0	 1	    1.00000	    0.00000	 500.0	 1	    1.10000	    0.90000;
	35342	 1	 0.0	 0.0	 0.0	 0.0	 1	    1.00000	    0.00000	 138.0	 1	    1.10000	    0.90000;
	35377	 1	 0.0	 0.0	 0.0	 0.0	 1	    1.00000	    0.00000	 500.0	 1	    1.10000	    0.90000;
	35378	 1	 0.0	 0.0	 0.0	 0.0	 1	    1.00000	    0.00000	 500.0	 1	    1.10000	    0.90000;
	35379	 2	 0.0	 0.0	 0.0	 0.0	 1	    1.00000	    0.00000	 500.0	 1	    1.10000	    0.90000;
	35380	 1	 0.0	 0.0	 0.0	 0.0	 1	    1.00000	    0.00000	 500.0	 1	    1.10000	    0.90000;
	35381	 1	 0.0	 0.0	 0.0	 0.0	 1	    1.00000	    0.00000	 500.0	 1	    1.10000	    0.90000;
	35382	 2	 0.0	 0.0	 0.0	 0.0	 1	    1.00000	    0.00000	 500.0	 1	    1.10000	    0.90000;
	35383	 1	 0.0	 0.0	 0.0	 0.0	 1	    1.00000	    0.00000	 500.0	 1	    1.10000	    0.90000;
	35384	 1	 0.0	 0.0	 0.0	 0.0	 1	    1.00000	    0.00000	 500.0	 1	    1.10000	    0.90000;
	35385	 2	 0.0	 0.0	 0.0	 0.0	 1	    1.00000	    0.00000	 500.0	 1	    1.10000	    0.90000;
	35386	 1	 0.0	 0.0	 0.0	 0.0	 1	    1.00000	    0.00000	 500.0	 1	    1.10000	    0.90000;
	35387	 2	 0.0	 0.0	 0.0	 0.0	 1	    1.00000	    0.00000	 500.0	 1	    1.10000	    0.90000;
	35388	 1	 0.0	 0.0	 0.0	 0.0	 1	    1.00000	    0.00000	 500.0	 1	    1.10000	    0.90000;
	35389	 2	 0.0	 0.0	 0.0	 0.0	 1	    1.00000	    0.00000	 500.0	 1	    1.10000	    0.90000;
	35390	 1	 0.0	 0.0	 0.0	 0.0	 1	    1.00000	    0.00000	 345.0	 1	    1.10000	    0.90000;
	35391	 2	 0.0	 0.0	 0.0	 0.0	 1	    1.00000	    0.00000	 138.0	 1	    1.10000	    0.90000;
	35392	 1	 0.0	 0.0	 0.0	 0.0	 1	    1.00000	    0.00000	 500.0	 1	    1.10000	    0.90000;
	35393	 1	 0.0	 0.0	 0.0	 0.0	 1	    1.00000	    0.00000	 138.0	 1	    1.10000	    0.90000;
	35394	 2	 0.0	 0.0	 0.0	 0.0	 1	    1.00000	    0.00000	 500.0	 1	    1.10000	    0.90000;
	35395	 1	 0.0	 0.0	 0.0	 0.0	 1	    1.00000	    0.00000	 500.0	 1	    1.10000	    0.90000;
	35396	 2	 0.0	 0.0	 0.0	 0.0	 1	    1.00000	    0.00000	 138.0	 1	    1.10000	    0.90000;
	35397	 2	 0.0	 0.0	 0.0	 0.0	 1	    1.00000	    0.00000	 69.0	 1	    1.10000	    0.90000;
	35398	 2	 0.0	 0.0	 0.0	 0.0	 1	    1.00000	    0.00000	 138.0	 1	    1.10000	    0.90000;
	35399	 2	 0.0	 0.0	 0.0	 0.0	 1	    1.00000	    0.00000	 138.0	 1	    1.10000	    0.90000;
	35400	 1	 0.0	 0.0	 0.0	 0.0	 1	    1.00000	    0.00000	 500.0	 1	    1.10000	    0.90000;
	35401	 2	 0.0	 0.0	 0.0	 0.0	 1	    1.00000	    0.00000	 138.0	 1	    1.10000	    0.90000;
	35402	 1	 0.0	 0.0	 0.0	 0.0	 1	    1.00000	    0.00000	 500.0	 1	    1.10000	    0.90000;
	35403	 2	 0.0	 0.0	 0.0	 0.0	 1	    1.00000	    0.00000	 138.0	 1	    1.10000	    0.90000;
	35404	 1	 0.0	 0.0	 0.0	 0.0	 1	    1.00000	    0.00000	 138.0	 1	    1.10000	    0.90000;
	35405	 1	 0.0	 0.0	 0.0	 0.0	 1	    1.00000	    0.00000	 230.0	 1	    1.10000	    0.90000;
	35406	 2	 0.0	 0.0	 0.0	 0.0	 1	    1.00000	    0.00000	 138.0	 1	    1.10000	    0.90000;
	35407	 1	 0.0	 0.0	 0.0	 0.0	 1	    1.00000	    0.00000	 345.0	 1	    1.10000	    0.90000;
	35408	 2	 0.0	 0.0	 0.0	 0.0	 1	    1.00000	    0.00000	 138.0	 1	    1.10000	    0.90000;
	35409	 2	 0.0	 0.0	 0.0	 0.0	 1	    1.00000	    0.00000	 138.0	 1	    1.10000	    0.90000;
	35410	 2	 0.0	 0.0	 0.0	 0.0	 1	    1.00000	    0.00000	 138.0	 1	    1.10000	    0.90000;
	35411	 1	 0.0	 0.0	 0.0	 0.0	 1	    1.00000	    0.00000	 500.0	 1	    1.10000	    0.90000;
	35412	 2	 0.0	 0.0	 0.0	 0.0	 1	    1.00000	    0.00000	 138.0	 1	    1.10000	    0.90000;
	35413	 2	 0.0	 0.0	 0.0	 0.0	 1	    1.00000	    0.00000	 69.0	 1	    1.10000	    0.90000;
	35414	 1	 0.0	 0.0	 0.0	 0.0	 1	    1.00000	    0.00000	 500.0	 1	    1.10000	    0.90000;
	35415	 2	 0.0	 0.0	 0.0	 0.0	 1	    1.00000	    0.00000	 69.0	 1	    1.10000	    0.90000;
	35416	 2	 0.0	 0.0	 0.0	 0.0	 1	    1.00000	    0.00000	 138.0	 1	    1.10000	    0.90000;
	35417	 2	 0.0	 0.0	 0.0	 0.0	 1	    1.00000	    0.00000	 138.0	 1	    1.10000	    0.90000;
	35418	 2	 0.0	 0.0	 0.0	 0.0	 1	    1.00000	    0.00000	 69.0	 1	    1.10000	    0.90000;
	35419	 2	 0.0	 0.0	 0.0	 0.0	 1	    1.00000	    0.00000	 138.0	 1	    1.10000	    0.90000;
	35420	 2	 0.0	 0.0	 0.0	 0.0	 1	    1.00000	    0.00000	 69.0	 1	    1.10000	    0.90000;
	35421	 2	 0.0	 0.0	 0.0	 0.0	 1	    1.00000	    0.00000	 138.0	 1	    1.10000	    0.90000;
	35422	 2	 0.0	 0.0	 0.0	 0.0	 1	    1.00000	    0.00000	 69.0	 1	    1.10000	    0.90000;
	35423	 1	 0.0	 0.0	 0.0	 0.0	 1	    1.00000	    0.00000	 138.0	 1	    1.10000	    0.90000;
	36603	 1	 3.615	 0.741	 0.0	 0.0	 1	    1.00000	    0.00000	 69.0	 1	    1.10000	    0.90000;
	36604	 1	 5.932	 2.132	 0.0	 0.0	 1	    1.00000	    0.00000	 69.0	 1	    1.10000	    0.90000;
	36605	 1	 5.561	 2.039	 0.0	 0.0	 1	    1.00000	    0.00000	 69.0	 1	    1.10000	    0.90000;
	36606	 1	 0.0	 0.0	 0.0	 0.0	 1	    1.00000	    0.00000	 138.0	 1	    1.10000	    0.90000;
	36607	 1	 0.0	 0.0	 0.0	 0.0	 1	    1.00000	    0.00000	 138.0	 1	    1.10000	    0.90000;
	36608	 1	 5.839	 2.132	 0.0	 0.0	 1	    1.00000	    0.00000	 69.0	 1	    1.10000	    0.90000;
	36609	 1	 3.244	 1.39	 0.0	 0.0	 1	    1.00000	    0.00000	 138.0	 1	    1.10000	    0.90000;
	36610	 1	 6.21	 2.873	 0.0	 0.0	 1	    1.00000	    0.00000	 69.0	 1	    1.10000	    0.90000;
	36611	 1	 4.912	 2.039	 0.0	 0.0	 1	    1.00000	    0.00000	 138.0	 1	    1.10000	    0.90000;
	36612	 1	 0.0	 0.0	 0.0	 0.0	 1	    1.00000	    0.00000	 138.0	 1	    1.10000	    0.90000;
	36613	 1	 0.0	 0.0	 0.0	 31.9999604565	 1	    1.00000	    0.00000	 138.0	 1	    1.10000	    0.90000;
	36614	 1	 2.781	 0.556	 0.0	 0.00040296557369	 1	    1.00000	    0.00000	 69.0	 1	    1.10000	    0.90000;
	36615	 1	 6.488	 0.927	 0.0	 0.0	 1	    1.00000	    0.00000	 69.0	 1	    1.10000	    0.90000;
	36616	 1	 0.0	 0.0	 0.0	 0.0	 1	    1.00000	    0.00000	 138.0	 1	    1.10000	    0.90000;
	36617	 1	 0.0	 0.0	 0.0	 0.0	 1	    1.00000	    0.00000	 138.0	 1	    1.10000	    0.90000;
	36618	 1	 20.854	 6.673	 0.0	 0.0	 1	    1.00000	    0.00000	 69.0	 1	    1.10000	    0.90000;
	36619	 1	 3.707	 1.576	 0.0	 0.0	 1	    1.00000	    0.00000	 138.0	 1	    1.10000	    0.90000;
	36620	 1	 5.654	 2.039	 0.0	 0.0	 1	    1.00000	    0.00000	 69.0	 1	    1.10000	    0.90000;
	36621	 1	 14.366	 6.302	 0.0	 0.0	 1	    1.00000	    0.00000	 69.0	 1	    1.10000	    0.90000;
	36622	 1	 3.522	 1.298	 0.0	 0.0	 1	    1.00000	    0.00000	 69.0	 1	    1.10000	    0.90000;
	36623	 1	 0.0	 0.0	 0.0	 0.0	 1	    1.00000	    0.00000	 500.0	 1	    1.10000	    0.90000;
	36624	 1	 7.785	 2.688	 0.0	 0.0	 1	    1.00000	    0.00000	 69.0	 1	    1.10000	    0.90000;
	36625	 1	 17.054	 6.395	 0.0	 0.0	 1	    1.00000	    0.00000	 69.0	 1	    1.10000	    0.90000;
	36626	 1	 8.527	 2.966	 0.0	 0.0	 1	    1.00000	    0.00000	 69.0	 1	    1.10000	    0.90000;
	36627	 1	 0.0	 0.0	 0.0	 0.0	 1	    1.00000	    0.00000	 500.0	 1	    1.10000	    0.90000;
	36628	 1	 0.0	 0.0	 0.0	 0.0	 1	    1.00000	    0.00000	 138.0	 1	    1.10000	    0.90000;
	36629	 1	 0.0	 0.0	 0.0	 0.0	 1	    1.00000	    0.00000	 138.0	 1	    1.10000	    0.90000;
	36630	 1	 0.0	 0.0	 0.0	 0.0	 1	    1.00000	    0.00000	 230.0	 1	    1.10000	    0.90000;
	36631	 1	 0.0	 0.0	 0.0	 0.0	 1	    1.00000	    0.00000	 138.0	 1	    1.10000	    0.90000;
	36632	 1	 7.878	 3.429	 0.0	 0.0	 1	    1.00000	    0.00000	 69.0	 1	    1.10000	    0.90000;
	36633	 1	 0.0	 0.0	 0.0	 0.0	 1	    1.00000	    0.00000	 138.0	 1	    1.10000	    0.90000;
	36634	 1	 3.707	 1.483	 0.0	 0.0	 1	    1.00000	    0.00000	 69.0	 1	    1.10000	    0.90000;
	36635	 1	 0.0	 0.0	 0.0	 0.0	 1	    1.00000	    0.00000	 138.0	 1	    1.10000	    0.90000;
	36636	 1	 12.234	 4.727	 0.0	 0.0	 1	    1.00000	    0.00000	 69.0	 1	    1.10000	    0.90000;
	36637	 1	 0.0	 0.0	 0.0	 0.0	 1	    1.00000	    0.00000	 138.0	 1	    1.10000	    0.90000;
	36638	 1	 12.512	 5.098	 0.0	 0.0	 1	    1.00000	    0.00000	 69.0	 1	    1.10000	    0.90000;
	36639	 1	 4.634	 1.854	 0.0	 0.0	 1	    1.00000	    0.00000	 69.0	 1	    1.10000	    0.90000;
	36640	 1	 3.244	 1.39	 0.0	 0.0	 1	    1.00000	    0.00000	 69.0	 1	    1.10000	    0.90000;
	36641	 1	 12.883	 3.985	 0.0	 0.0	 1	    1.00000	    0.00000	 69.0	 1	    1.10000	    0.90000;
	36642	 1	 0.0	 0.0	 0.0	 0.0	 1	    1.00000	    0.00000	 138.0	 1	    1.10000	    0.90000;
	36643	 1	 0.0	 0.0	 0.0	 0.0	 1	    1.00000	    0.00000	 138.0	 1	    1.10000	    0.90000;
	36644	 1	 6.395	 2.873	 0.0	 0.0	 1	    1.00000	    0.00000	 69.0	 1	    1.10000	    0.90000;
	36645	 1	 7.878	 2.781	 0.0	 0.0	 1	    1.00000	    0.00000	 69.0	 1	    1.10000	    0.90000;
	36646	 1	 26.322	 11.493	 0.0	 0.0	 1	    1.00000	    0.00000	 138.0	 1	    1.10000	    0.90000;
	36647	 1	 46.712	 14.459	 0.0	 0.0	 1	    1.00000	    0.00000	 345.0	 1	    1.10000	    0.90000;
	36648	 1	 0.0	 0.0	 0.0	 0.0	 1	    1.00000	    0.00000	 500.0	 1	    1.10000	    0.90000;
	36649	 1	 0.0	 0.0	 0.0	 0.0	 1	    1.00000	    0.00000	 138.0	 1	    1.10000	    0.90000;
	36650	 1	 22.986	 8.898	 0.0	 0.0	 1	    1.00000	    0.00000	 138.0	 1	    1.10000	    0.90000;
	36651	 1	 0.0	 0.0	 0.0	 0.0	 1	    1.00000	    0.00000	 138.0	 1	    1.10000	    0.90000;
	36652	 1	 10.844	 4.171	 0.0	 0.0	 1	    1.00000	    0.00000	 69.0	 1	    1.10000	    0.90000;
	36653	 1	 0.0	 0.0	 0.0	 0.0	 1	    1.00000	    0.00000	 500.0	 1	    1.10000	    0.90000;
	36654	 1	 17.054	 6.488	 0.0	 0.0	 1	    1.00000	    0.00000	 138.0	 1	    1.10000	    0.90000;
	36655	 1	 8.156	 3.522	 0.0	 0.0	 1	    1.00000	    0.00000	 138.0	 1	    1.10000	    0.90000;
	36656	 1	 10.751	 5.005	 0.0	 0.0	 1	    1.00000	    0.00000	 138.0	 1	    1.10000	    0.90000;
	36657	 1	 36.332	 12.605	 0.0	 0.0	 1	    1.00000	    0.00000	 138.0	 1	    1.10000	    0.90000;
	36658	 1	 0.0	 0.0	 0.0	 0.0	 1	    1.00000	    0.00000	 138.0	 1	    1.10000	    0.90000;
	36659	 1	 13.81	 5.839	 0.0	 0.0	 1	    1.00000	    0.00000	 138.0	 1	    1.10000	    0.90000;
	36660	 1	 0.0	 0.0	 0.0	 0.0	 1	    1.00000	    0.00000	 138.0	 1	    1.10000	    0.90000;
	36661	 1	 0.0	 0.0	 0.0	 0.0	 1	    1.00000	    0.00000	 138.0	 1	    1.10000	    0.90000;
	36662	 1	 6.21	 2.595	 0.0	 0.0	 1	    1.00000	    0.00000	 69.0	 1	    1.10000	    0.90000;
	36663	 1	 0.0	 0.0	 0.0	 0.0	 1	    1.00000	    0.00000	 138.0	 1	    1.10000	    0.90000;
	36664	 1	 14.922	 6.302	 0.0	 0.0	 1	    1.00000	    0.00000	 69.0	 1	    1.10000	    0.90000;
	36665	 1	 56.166	 20.112	 0.0	 0.0	 1	    1.00000	    0.00000	 138.0	 1	    1.10000	    0.90000;
	36666	 1	 8.249	 3.337	 0.0	 0.0	 1	    1.00000	    0.00000	 69.0	 1	    1.10000	    0.90000;
	36667	 1	 24.932	 8.712	 0.0	 0.0	 1	    1.00000	    0.00000	 138.0	 1	    1.10000	    0.90000;
	36668	 1	 0.0	 0.0	 0.0	 0.0	 1	    1.00000	    0.00000	 138.0	 1	    1.10000	    0.90000;
	36669	 1	 17.424	 7.229	 0.0	 0.0	 1	    1.00000	    0.00000	 138.0	 1	    1.10000	    0.90000;
	36670	 1	 8.063	 0.649	 0.0	 0.0	 1	    1.00000	    0.00000	 138.0	 1	    1.10000	    0.90000;
	36671	 1	 20.39	 4.449	 0.0	 0.0	 1	    1.00000	    0.00000	 69.0	 1	    1.10000	    0.90000;
	36672	 1	 10.195	 3.151	 0.0	 0.0	 1	    1.00000	    0.00000	 69.0	 1	    1.10000	    0.90000;
	36673	 1	 6.302	 2.317	 0.0	 0.0	 1	    1.00000	    0.00000	 69.0	 1	    1.10000	    0.90000;
	36674	 1	 0.0	 0.0	 0.0	 0.0	 1	    1.00000	    0.00000	 345.0	 1	    1.10000	    0.90000;
	36675	 1	 8.434	 3.707	 0.0	 0.0	 1	    1.00000	    0.00000	 69.0	 1	    1.10000	    0.90000;
	36676	 1	 7.137	 2.224	 0.0	 0.0	 1	    1.00000	    0.00000	 69.0	 1	    1.10000	    0.90000;
	36677	 1	 0.0	 0.0	 0.0	 0.0	 1	    1.00000	    0.00000	 138.0	 1	    1.10000	    0.90000;
	36678	 1	 9.083	 3.337	 0.0	 0.0	 1	    1.00000	    0.00000	 69.0	 1	    1.10000	    0.90000;
	36679	 1	 7.322	 3.151	 0.0	 0.0	 1	    1.00000	    0.00000	 69.0	 1	    1.10000	    0.90000;
	36680	 1	 7.971	 3.707	 0.0	 0.0	 1	    1.00000	    0.00000	 69.0	 1	    1.10000	    0.90000;
	36681	 1	 13.254	 5.468	 0.0	 0.0	 1	    1.00000	    0.00000	 69.0	 1	    1.10000	    0.90000;
	36682	 1	 13.995	 6.024	 0.0	 0.0	 1	    1.00000	    0.00000	 69.0	 1	    1.10000	    0.90000;
	36683	 1	 0.0	 0.0	 0.0	 0.0	 1	    1.00000	    0.00000	 138.0	 1	    1.10000	    0.90000;
	36684	 1	 45.786	 14.181	 0.0	 0.0	 1	    1.00000	    0.00000	 230.0	 1	    1.10000	    0.90000;
	36685	 1	 160.806	 44.117	 0.0	 0.0	 1	    1.00000	    0.00000	 500.0	 1	    1.10000	    0.90000;
	36686	 1	 13.532	 5.376	 0.0	 0.0	 1	    1.00000	    0.00000	 138.0	 1	    1.10000	    0.90000;
	36687	 1	 20.946	 7.415	 0.0	 0.0	 1	    1.00000	    0.00000	 138.0	 1	    1.10000	    0.90000;
	36688	 1	 19.0	 7.693	 0.0	 0.0	 1	    1.00000	    0.00000	 138.0	 1	    1.10000	    0.90000;
	36689	 1	 0.0	 0.0	 0.0	 0.0	 1	    1.00000	    0.00000	 138.0	 1	    1.10000	    0.90000;
	36690	 1	 14.644	 4.912	 0.0	 0.0	 1	    1.00000	    0.00000	 69.0	 1	    1.10000	    0.90000;
	36691	 1	 0.0	 0.0	 0.0	 0.0	 1	    1.00000	    0.00000	 500.0	 1	    1.10000	    0.90000;
	36692	 1	 8.249	 3.8	 0.0	 0.0	 1	    1.00000	    0.00000	 69.0	 1	    1.10000	    0.90000;
	36693	 1	 0.0	 0.0	 0.0	 0.0	 1	    1.00000	    0.00000	 138.0	 1	    1.10000	    0.90000;
	36694	 1	 9.824	 3.985	 0.0	 0.0	 1	    1.00000	    0.00000	 500.0	 1	    1.10000	    0.90000;
	36695	 1	 0.0	 0.0	 0.0	 0.0	 1	    1.00000	    0.00000	 500.0	 1	    1.10000	    0.90000;
	36696	 1	 11.215	 4.634	 0.0	 0.0	 1	    1.00000	    0.00000	 138.0	 1	    1.10000	    0.90000;
	36697	 1	 3.059	 1.205	 0.0	 0.0	 1	    1.00000	    0.00000	 69.0	 1	    1.10000	    0.90000;
	36698	 1	 5.005	 2.41	 0.0	 0.0	 1	    1.00000	    0.00000	 138.0	 1	    1.10000	    0.90000;
	36699	 1	 0.0	 0.0	 0.0	 0.0	 1	    1.00000	    0.00000	 138.0	 1	    1.10000	    0.90000;
	36700	 1	 2.224	 0.927	 0.0	 0.0	 1	    1.00000	    0.00000	 138.0	 1	    1.10000	    0.90000;
	36701	 1	 2.688	 1.205	 0.0	 0.0	 1	    1.00000	    0.00000	 138.0	 1	    1.10000	    0.90000;
	36702	 1	 0.0	 0.0	 0.0	 0.0	 1	    1.00000	    0.00000	 138.0	 1	    1.10000	    0.90000;
	36703	 1	 12.512	 4.356	 0.0	 0.0	 1	    1.00000	    0.00000	 138.0	 1	    1.10000	    0.90000;
	36704	 1	 0.0	 0.0	 0.0	 0.0	 1	    1.00000	    0.00000	 138.0	 1	    1.10000	    0.90000;
	36705	 1	 0.0	 0.0	 0.0	 0.0	 1	    1.00000	    0.00000	 138.0	 1	    1.10000	    0.90000;
	36706	 1	 7.878	 3.059	 0.0	 0.0	 1	    1.00000	    0.00000	 69.0	 1	    1.10000	    0.90000;
	36707	 1	 3.429	 1.483	 0.0	 0.0	 1	    1.00000	    0.00000	 69.0	 1	    1.10000	    0.90000;
	36708	 1	 5.839	 2.781	 0.0	 0.0	 1	    1.00000	    0.00000	 69.0	 1	    1.10000	    0.90000;
	36709	 1	 8.805	 3.985	 0.0	 0.0	 1	    1.00000	    0.00000	 69.0	 1	    1.10000	    0.90000;
	36710	 1	 8.156	 3.707	 0.0	 0.0	 1	    1.00000	    0.00000	 69.0	 1	    1.10000	    0.90000;
	36711	 1	 0.0	 0.0	 0.0	 0.0	 1	    1.00000	    0.00000	 138.0	 1	    1.10000	    0.90000;
	36712	 1	 6.581	 3.059	 0.0	 0.0	 1	    1.00000	    0.00000	 138.0	 1	    1.10000	    0.90000;
	36713	 1	 10.844	 4.541	 0.0	 0.0	 1	    1.00000	    0.00000	 69.0	 1	    1.10000	    0.90000;
	36714	 1	 7.693	 3.707	 0.0	 0.0	 1	    1.00000	    0.00000	 69.0	 1	    1.10000	    0.90000;
	36715	 1	 0.0	 0.0	 0.0	 0.0	 1	    1.00000	    0.00000	 138.0	 1	    1.10000	    0.90000;
	36716	 1	 0.0	 0.0	 0.0	 0.0	 1	    1.00000	    0.00000	 138.0	 1	    1.10000	    0.90000;
	36717	 1	 0.0	 0.0	 0.0	 0.0	 1	    1.00000	    0.00000	 138.0	 1	    1.10000	    0.90000;
	36718	 1	 0.0	 0.0	 0.0	 0.0	 1	    1.00000	    0.00000	 138.0	 1	    1.10000	    0.90000;
	36719	 1	 5.098	 1.946	 0.0	 0.0	 1	    1.00000	    0.00000	 69.0	 1	    1.10000	    0.90000;
	36720	 1	 0.0	 0.0	 0.0	 0.0	 1	    1.00000	    0.00000	 138.0	 1	    1.10000	    0.90000;
...
];

%% generator data
%	bus	Pg	Qg	Qmax	Qmin	Vg	mBase	status	Pmax	Pmin
mpc.gen = [
	35308	 606.0	 58.3	 373.9	 -257.3	 1.0	 100.0	 1	 772.0	 440.0;
	35309	 943.1	 86.85	 557.1	 -383.4	 1.0	 100.0	 1	 1150.2	 736.0;
	35310	 150.0	 28.5	 123.3	 -66.3	 1.0	 100.0	 1	 220.0	 80.0;
	35310	 353.55	 42.75	 274.2	 -188.7	 1.0	 100.0	 1	 566.1	 141.0;
	35311	 356.95	 42.05	 269.7	 -185.6	 1.0	 100.0	 1	 556.9	 157.0;
	35311	 355.65	 42.0	 269.4	 -185.4	 1.0	 100.0	 1	 556.3	 155.0;
	35311	 354.6	 42.0	 269.4	 -185.4	 1.0	 100.0	 1	 556.2	 153.0;
	35311	 353.25	 42.0	 269.5	 -185.5	 1.0	 100.0	 1	 556.5	 150.0;
	35316	 558.15	 61.65	 395.4	 -272.1	 1.0	 100.0	 1	 816.3	 300.0;
	35322	 176.0	 38.95	 168.6	 -90.7	 1.0	 100.0	 1	 272.0	 80.0;
	35323	 126.6	 23.35	 101.1	 -54.4	 1.0	 100.0	 1	 163.2	 90.0;
	35323	 216.05	 21.3	 136.6	 -94.0	 1.0	 100.0	 1	 282.1	 150.0;
	35326	 59.4	 7.5	 47.9	 -32.9	 1.0	 100.0	 1	 98.8	 20.0;
	35326	 68.0	 13.75	 59.5	 -32.0	 1.0	 100.0	 1	 96.0	 40.0;
	35330	 6.325	 0.8125	 5.175	 -3.55	 1.0	 100.0	 1	 10.65	 2.0;
	35330	 6.325	 0.8125	 5.175	 -3.55	 1.0	 100.0	 1	 10.65	 2.0;
	35330	 6.325	 0.8125	 5.175	 -3.55	 1.0	 100.0	 1	 10.65	 2.0;
	35330	 6.325	 0.8125	 5.175	 -3.55	 1.0	 100.0	 1	 10.65	 2.0;
	35330	 6.325	 0.8125	 5.175	 -3.55	 1.0	 100.0	 1	 10.65	 2.0;
	35330	 6.325	 0.8125	 5.175	 -3.55	 1.0	 100.0	 1	 10.65	 2.0;
	35330	 6.325	 0.8125	 5.175	 -3.55	 1.0	 100.0	 1	 10.65	 2.0;
	35330	 6.325	 0.8125	 5.175	 -3.55	 1.0	 100.0	 1	 10.65	 2.0;
	35331	 56.0	 10.75	 46.5	 -25.0	 1.0	 100.0	 1	 75.0	 37.0;
	35331	 75.3	 16.25	 70.4	 -37.9	 1.0	 100.0	 1	 113.6	 37.0;
	35332	 50.625	 10.25	 45.5	 -25.0	 1.0	 100.0	 1	 75.0	 26.25;
	35333	 65.5	 5.3	 33.9	 -23.3	 1.0	 100.0	 1	 70.0	 61.0;
	35335	 45.0	 3.4	 21.8	 -15.0	 1.0	 100.0	 1	 45.0	 45.0;
	35335	 45.0	 3.4	 21.8	 -15.0	 1.0	 100.0	 1	 45.0	 45.0;
	35335	 45.0	 3.4	 21.8	 -15.0	 1.0	 100.0	 1	 45.0	 45.0;
	35335	 45.0	 3.4	 21.8	 -15.0	 1.0	 100.0	 1	 45.0	 45.0;
	35335	 45.0	 3.4	 21.8	 -15.0	 1.0	 100.0	 1	 45.0	 45.0;
	35335	 45.0	 3.4	 21.8	 -15.0	 1.0	 100.0	 1	 45.0	 45.0;
	35336	 30.65	 0.0	 18.1	 -18.1	 1.0	 100.0	 1	 42.4	 18.9;
	35336	 30.65	 0.0	 18.1	 -18.1	 1.0	 100.0	 1	 42.4	 18.9;
	35336	 31.75	 0.0	 19.0	 -19.0	 1.0	 100.0	 1	 44.6	 18.9;
	35336	 31.75	 0.0	 19.0	 -19.0	 1.0	 100.0	 1	 44.6	 18.9;
	35336	 31.75	 0.0	 19.0	 -19.0	 1.0	 100.0	 1	 44.6	 18.9;
	35337	 27.8	 4.65	 20.2	 -10.9	 1.0	 100.0	 1	 32.6	 23.0;
	35337	 129.5	 25.5	 110.3	 -59.3	 1.0	 100.0	 1	 178.0	 81.0;
	35379	 1173.1	 92.15	 591.1	 -406.8	 1.0	 100.0	 1	 1220.5	 1125.7;
	35382	 14.45	 1.8	 11.6	 -8.0	 1.0	 100.0	 1	 23.9	 5.0;
	35382	 14.45	 1.8	 11.6	 -8.0	 1.0	 100.0	 1	 23.9	 5.0;
	35382	 14.45	 1.8	 11.6	 -8.0	 1.0	 100.0	 1	 23.9	 5.0;
	35382	 14.45	 1.8	 11.6	 -8.0	 1.0	 100.0	 1	 23.9	 5.0;
	35382	 14.45	 1.8	 11.6	 -8.0	 1.0	 100.0	 1	 23.9	 5.0;
	35382	 14.45	 1.8	 11.6	 -8.0	 1.0	 100.0	 1	 23.9	 5.0;
	35382	 249.0	 24.9	 159.8	 -110.0	 1.0	 100.0	 1	 330.0	 168.0;
	35382	 249.0	 42.9	 195.8	 -110.0	 1.0	 100.0	 1	 330.0	 168.0;
	35382	 72.25	 6.35	 40.9	 -28.2	 1.0	 100.0	 1	 84.5	 60.0;
	35385	 127.7	 14.0	 89.8	 -61.8	 1.0	 100.0	 1	 185.4	 70.0;
	35385	 130.6	 14.45	 92.6	 -63.7	 1.0	 100.0	 1	 191.2	 70.0;
	35385	 130.6	 14.45	 92.6	 -63.7	 1.0	 100.0	 1	 191.2	 70.0;
	35387	 72.25	 6.35	 40.9	 -28.2	 1.0	 100.0	 1	 84.5	 60.0;
	35387	 73.1	 6.5	 41.7	 -28.7	 1.0	 100.0	 1	 86.2	 60.0;
	35387	 73.1	 6.5	 41.7	 -28.7	 1.0	 100.0	 1	 86.2	 60.0;
	35387	 73.1	 6.5	 41.7	 -28.7	 1.0	 100.0	 1	 86.2	 60.0;
	35387	 73.1	 6.5	 41.7	 -28.7	 1.0	 100.0	 1	 86.2	 60.0;
	35387	 177.2	 19.45	 124.8	 -85.9	 1.0	 100.0	 1	 257.6	 96.8;
	35387	 72.25	 6.35	 40.9	 -28.2	 1.0	 100.0	 1	 84.5	 60.0;
	35389	 101.0	 8.95	 57.2	 -39.3	 1.0	 100.0	 1	 118.0	 84.0;
	35389	 101.0	 8.95	 57.2	 -39.3	 1.0	 100.0	 1	 118.0	 84.0;
	35389	 93.5	 8.45	 54.2	 -37.3	 1.0	 100.0	 1	 112.0	 75.0;
	35389	 93.5	 8.45	 54.2	 -37.3	 1.0	 100.0	 1	 112.0	 75.0;
	35391	 11.5335	 0.0	 6.933	 -6.933	 1.0	 100.0	 1	 21.067	 2.0;
	35391	 11.5335	 0.0	 6.933	 -6.933	 1.0	 100.0	 1	 21.067	 2.0;
	35391	 11.5335	 0.0	 6.933	 -6.933	 1.0	 100.0	 1	 21.067	 2.0;
	35391	 13.5	 0.0	 8.2	 -8.2	 1.0	 100.0	 1	 25.0	 2.0;
	35394	 43.6	 10.9	 39.2	 -17.4	 1.0	 100.0	 1	 52.2	 35.0;
	35394	 43.6	 10.9	 39.2	 -17.4	 1.0	 100.0	 1	 52.2	 35.0;
	35394	 43.6	 10.9	 39.2	 -17.4	 1.0	 100.0	 1	 52.2	 35.0;
	35396	 12.3	 3.467	 12.467	 -5.533	 1.0	 100.0	 1	 16.6	 8.0;
	35396	 12.3	 3.467	 12.467	 -5.533	 1.0	 100.0	 1	 16.6	 8.0;
	35396	 12.3	 3.467	 12.467	 -5.533	 1.0	 100.0	 1	 16.6	 8.0;
	35397	 31.85	 3.4	 21.8	 -15.0	 1.0	 100.0	 1	 45.0	 18.7;
	35398	 45.0	 3.4	 21.8	 -15.0	 1.0	 100.0	 1	 45.0	 45.0;
	35398	 45.0	 3.4	 21.8	 -15.0	 1.0	 100.0	 1	 45.0	 45.0;
	35398	 45.0	 3.4	 21.8	 -15.0	 1.0	 100.0	 1	 45.0	 45.0;
	35399	 27.25	 3.15	 20.1	 -13.8	 1.0	 100.0	 1	 41.4	 13.1;
	35399	 32.65	 3.95	 25.3	 -17.4	 1.0	 100.0	 1	 52.2	 13.1;
	35401	 25.6	 0.0	 13.1	 -13.1	 1.0	 100.0	 1	 39.9	 11.3;
	35401	 25.6	 0.0	 13.1	 -13.1	 1.0	 100.0	 1	 39.9	 11.3;
	35401	 25.6	 0.0	 13.1	 -13.1	 1.0	 100.0	 1	 39.9	 11.3;
	35401	 25.6	 0.0	 13.1	 -13.1	 1.0	 100.0	 1	 39.9	 11.3;
	35403	 12.0	 0.9	 5.8	 -4.0	 1.0	 100.0	 1	 12.0	 12.0;
	35403	 12.0	 0.9	 5.8	 -4.0	 1.0	 100.0	 1	 12.0	 12.0;
	35403	 12.0	 0.9	 5.8	 -4.0	 1.0	 100.0	 1	 12.0	 12.0;
	35406	 12.925	 1.925	 9.45	 -5.6	 1.0	 100.0	 1	 16.85	 9.0;
	35406	 12.925	 1.925	 9.45	 -5.6	 1.0	 100.0	 1	 16.85	 9.0;
	35408	 33.3	 2.5	 16.1	 -11.1	 1.0	 100.0	 1	 33.3	 33.3;
	35408	 33.3	 2.5	 16.1	 -11.1	 1.0	 100.0	 1	 33.3	 33.3;
	35408	 33.3	 2.5	 16.1	 -11.1	 1.0	 100.0	 1	 33.3	 33.3;
	35409	 23.45	 2.45	 15.7	 -10.8	 1.0	 100.0	 1	 32.4	 14.5;
	35409	 23.95	 2.55	 16.2	 -11.1	 1.0	 100.0	 1	 33.4	 14.5;
	35409	 24.55	 2.65	 16.8	 -11.5	 1.0	 100.0	 1	 34.6	 14.5;
	35409	 24.55	 2.65	 16.8	 -11.5	 1.0	 100.0	 1	 34.6	 14.5;
	35410	 22.85	 2.4	 15.3	 -10.5	 1.0	 100.0	 1	 31.5	 14.2;
	35410	 25.35	 2.75	 17.7	 -12.2	 1.0	 100.0	 1	 36.5	 14.2;
	35410	 27.2	 3.15	 20.1	 -13.8	 1.0	 100.0	 1	 41.4	 13.0;
	35410	 27.2	 3.15	 20.1	 -13.8	 1.0	 100.0	 1	 41.4	 13.0;
	35412	 24.65	 0.0	 9.7	 -9.7	 1.0	 100.0	 1	 29.6	 19.7;
	35412	 28.85	 0.0	 12.5	 -12.5	 1.0	 100.0	 1	 38.0	 19.7;
	35412	 29.0	 0.0	 12.6	 -12.6	 1.0	 100.0	 1	 38.3	 19.7;
	35413	 19.8	 2.15	 13.9	 -9.6	 1.0	 100.0	 1	 28.8	 10.8;
	35415	 28.0	 2.15	 13.6	 -9.3	 1.0	 100.0	 1	 28.0	 28.0;
	35416	 13.5	 0.0	 10.7	 -10.7	 1.0	 100.0	 1	 27.0	 0.0;
	35417	 25.0	 3.6	 15.5	 -8.3	 1.0	 100.0	 1	 25.0	 25.0;
	35417	 25.0	 3.6	 15.5	 -8.3	 1.0	 100.0	 1	 25.0	 25.0;
	35417	 25.0	 3.6	 15.5	 -8.3	 1.0	 100.0	 1	 25.0	 25.0;
	35417	 26.85	 4.1	 17.8	 -9.6	 1.0	 100.0	 1	 28.7	 25.0;
	35418	 13.0	 0.0	 8.2	 -8.2	 1.0	 100.0	 1	 25.0	 1.0;
	35419	 18.55	 1.85	 11.8	 -8.1	 1.0	 100.0	 1	 24.3	 12.8;
	35419	 18.55	 1.85	 11.8	 -8.1	 1.0	 100.0	 1	 24.3	 12.8;
	35419	 20.55	 2.1	 13.3	 -9.1	 1.0	 100.0	 1	 27.4	 13.7;
	35419	 20.8	 2.1	 13.5	 -9.3	 1.0	 100.0	 1	 27.9	 13.7;
	35420	 8.75	 2.4	 8.65	 -3.85	 1.0	 100.0	 1	 11.5	 6.0;
	35420	 8.75	 2.4	 8.65	 -3.85	 1.0	 100.0	 1	 11.5	 6.0;
	35421	 26.0	 0.0	 16.4	 -16.4	 1.0	 100.0	 1	 50.0	 2.0;
	35421	 12.25	 1.7	 10.9	 -7.5	 1.0	 100.0	 1	 22.5	 2.0;
	35422	 1.2	 0.1545	 0.973	 -0.664	 1.0	 100.0	 1	 2.0	 0.4;
	35422	 1.2	 0.1545	 0.973	 -0.664	 1.0	 100.0	 1	 2.0	 0.4;
	35422	 1.2	 0.1545	 0.973	 -0.664	 1.0	 100.0	 1	 2.0	 0.4;
	35422	 1.2	 0.1545	 0.973	 -0.664	 1.0	 100.0	 1	 2.0	 0.4;
	35422	 1.2	 0.1545	 0.973	 -0.664	 1.0	 100.0	 1	 2.0	 0.4;
	35422	 1.2	 0.1545	 0.973	 -0.664	 1.0	 100.0	 1	 2.0	 0.4;
	35422	 1.2	 0.1545	 0.973	 -0.664	 1.0	 100.0	 1	 2.0	 0.4;
	35422	 1.2	 0.1545	 0.973	 -0.664	 1.0	 100.0	 1	 2.0	 0.4;
	35422	 1.2	 0.1545	 0.973	 -0.664	 1.0	 100.0	 1	 2.0	 0.4;
	35422	 1.2	 0.1545	 0.973	 -0.664	 1.0	 100.0	 1	 2.0	 0.4;
	35422	 1.2	 0.1545	 0.973	 -0.664	 1.0	 100.0	 1	 2.0	 0.4;
	75435	 554.0	 53.15	 341.0	 -234.7	 1.0	 100.0	 1	 704.0	 404.0;
	75435	 552.5	 53.15	 341.0	 -234.7	 1.0	 100.0	 1	 704.0	 401.0;
	75439	 150.0	 28.5	 123.3	 -66.3	 1.0	 100.0	 1	 220.0	 80.0;
	75439	 139.5	 28.5	 123.3	 -66.3	 1.0	 100.0	 1	 199.0	 80.0;
	75439	 139.5	 28.5	 123.3	 -66.3	 1.0	 100.0	 1	 199.0	 80.0;
	75439	 139.5	 28.5	 123.3	 -66.3	 1.0	 100.0	 1	 199.0	 80.0;
	75439	 139.5	 28.5	 123.3	 -66.3	 1.0	 100.0	 1	 199.0	 80.0;
	75444	 404.7	 38.45	 246.7	 -169.8	 1.0	 100.0	 1	 509.4	 300.0;
	75446	 316.3	 34.9	 224.0	 -154.2	 1.0	 100.0	 1	 462.6	 170.0;
	75446	 359.3	 41.05	 263.3	 -181.2	 1.0	 100.0	 1	 543.6	 175.0;
	75450	 254.7	 47.15	 204.1	 -109.8	 1.0	 100.0	 1	 329.4	 180.0;
	75450	 254.7	 47.15	 204.1	 -109.8	 1.0	 100.0	 1	 329.4	 180.0;
	75450	 251.3	 0.0	 104.3	 -104.3	 1.0	 100.0	 1	 357.6	 145.0;
	75450	 436.05	 0.0	 172.7	 -172.7	 1.0	 100.0	 1	 592.1	 280.0;
	75453	 227.0	 22.1	 141.9	 -97.7	 1.0	 100.0	 1	 293.0	 161.0;
	75453	 199.0	 22.1	 141.9	 -97.7	 1.0	 100.0	 1	 293.0	 105.0;
	75454	 190.25	 40.15	 173.8	 -93.5	 1.0	 100.0	 1	 280.5	 100.0;
	75456	 175.0	 32.9	 142.5	 -76.7	 1.0	 100.0	 1	 230.0	 120.0;
	75459	 162.5	 29.8	 128.9	 -69.3	 1.0	 100.0	 1	 208.0	 117.0;
	75462	 162.5	 15.5	 99.3	 -68.3	 1.0	 100.0	 1	 205.0	 120.0;
	75462	 147.5	 15.1	 96.9	 -66.7	 1.0	 100.0	 1	 200.0	 95.0;
	75463	 130.0	 14.5	 93.0	 -64.0	 1.0	 100.0	 1	 192.0	 68.0;
	75463	 135.0	 29.35	 127.0	 -68.3	 1.0	 100.0	 1	 205.0	 65.0;
	75463	 127.5	 29.35	 127.0	 -68.3	 1.0	 100.0	 1	 205.0	 50.0;
	75464	 113.0	 13.25	 84.8	 -58.3	 1.0	 100.0	 1	 175.0	 51.0;
	75464	 121.625	 13.25	 84.8	 -58.3	 1.0	 100.0	 1	 175.0	 68.25;
	75464	 113.0	 13.25	 84.8	 -58.3	 1.0	 100.0	 1	 175.0	 51.0;
	75464	 113.0	 13.25	 84.8	 -58.3	 1.0	 100.0	 1	 175.0	 51.0;
	75464	 113.0	 13.25	 84.8	 -58.3	 1.0	 100.0	 1	 175.0	 51.0;
	75464	 113.0	 13.25	 84.8	 -58.3	 1.0	 100.0	 1	 175.0	 51.0;
	75464	 113.0	 13.25	 84.8	 -58.3	 1.0	 100.0	 1	 175.0	 51.0;
	75464	 113.0	 13.25	 84.8	 -58.3	 1.0	 100.0	 1	 175.0	 51.0;
	75464	 113.0	 13.25	 84.8	 -58.3	 1.0	 100.0	 1	 175.0	 51.0;
	75464	 113.0	 13.25	 84.8	 -58.3	 1.0	 100.0	 1	 175.0	 51.0;
	75465	 114.1	 23.35	 101.1	 -54.4	 1.0	 100.0	 1	 163.2	 65.0;
	75465	 137.2	 30.0	 129.8	 -69.8	 1.0	 100.0	 1	 209.4	 65.0;
	75468	 121.75	 25.7	 111.2	 -59.8	 1.0	 100.0	 1	 179.5	 64.0;
	75468	 309.5	 35.0	 224.7	 -154.7	 1.0	 100.0	 1	 464.0	 155.0;
	75468	 74.8	 16.25	 70.4	 -37.9	 1.0	 100.0	 1	 113.6	 36.0;
	75468	 86.5	 17.6	 76.2	 -41.0	 1.0	 100.0	 1	 123.0	 50.0;
	75468	 88.0	 18.05	 78.1	 -42.0	 1.0	 100.0	 1	 126.0	 50.0;
	75468	 88.0	 18.05	 78.1	 -42.0	 1.0	 100.0	 1	 126.0	 50.0;
	75468	 88.0	 18.05	 78.1	 -42.0	 1.0	 100.0	 1	 126.0	 50.0;
	75468	 88.0	 18.05	 78.1	 -42.0	 1.0	 100.0	 1	 126.0	 50.0;
	75468	 162.5	 25.35	 109.6	 -58.9	 1.0	 100.0	 1	 220.0	 105.0;
	75468	 145.0	 25.35	 109.6	 -58.9	 1.0	 100.0	 1	 200.0	 90.0;
	75471	 71.8	 0.0	 45.6	 -45.6	 1.0	 100.0	 1	 113.6	 30.0;
	75471	 165.2	 0.0	 85.1	 -85.1	 1.0	 100.0	 1	 230.4	 100.0;
	75474	 76.5	 7.4	 47.5	 -32.7	 1.0	 100.0	 1	 98.0	 55.0;
	75474	 76.5	 7.4	 47.5	 -32.7	 1.0	 100.0	 1	 98.0	 55.0;
	75474	 81.5	 8.15	 52.3	 -36.0	 1.0	 100.0	 1	 108.0	 55.0;
	75474	 81.5	 8.15	 52.3	 -36.0	 1.0	 100.0	 1	 108.0	 55.0;
	75474	 64.0	 14.0	 60.7	 -32.7	 1.0	 100.0	 1	 98.0	 30.0;
	75474	 49.0	 14.0	 60.7	 -32.7	 1.0	 100.0	 1	 98.0	 0.0;
	75474	 76.0	 11.25	 72.2	 -49.7	 1.0	 100.0	 1	 149.0	 3.0;
	75474	 76.0	 11.25	 72.2	 -49.7	 1.0	 100.0	 1	 149.0	 3.0;
	75474	 111.5	 11.25	 72.2	 -49.7	 1.0	 100.0	 1	 220.0	 3.0;
	75476	 51.5	 6.65	 42.6	 -29.3	 1.0	 100.0	 1	 88.0	 15.0;
	75477	 65.5	 6.5	 41.7	 -28.7	 1.0	 100.0	 1	 86.0	 45.0;
	75477	 65.5	 6.5	 41.7	 -28.7	 1.0	 100.0	 1	 86.0	 45.0;
	75477	 65.5	 6.5	 41.7	 -28.7	 1.0	 100.0	 1	 86.0	 45.0;
	75477	 65.5	 6.5	 41.7	 -28.7	 1.0	 100.0	 1	 86.0	 45.0;
	75477	 65.5	 6.5	 41.7	 -28.7	 1.0	 100.0	 1	 86.0	 45.0;
	75477	 65.5	 6.5	 41.7	 -28.7	 1.0	 100.0	 1	 86.0	 45.0;
	75477	 65.5	 6.5	 41.7	 -28.7	 1.0	 100.0	 1	 86.0	 45.0;
	75477	 65.5	 6.5	 41.7	 -28.7	 1.0	 100.0	 1	 86.0	 45.0;
	75479	 37.5	 8.6	 37.2	 -20.0	 1.0	 100.0	 1	 60.0	 15.0;
	75479	 37.5	 8.6	 37.2	 -20.0	 1.0	 100.0	 1	 60.0	 15.0;
	75484	 32.5	 2.45	 15.7	 -10.8	 1.0	 100.0	 1	 32.5	 32.5;
	75484	 32.5	 2.45	 15.7	 -10.8	 1.0	 100.0	 1	 32.5	 32.5;
	75484	 32.5	 2.45	 15.7	 -10.8	 1.0	 100.0	 1	 32.5	 32.5;
...
];

%% generator cost data
%	2	startup	shutdown	n	c(n-1)	...	c0
mpc.gencost = [
	2	 0.0	 0.0	 3	   0.001771	  17.710000	  -1.413000;
	2	 0.0	 0.0	 3	   0.001198	  16.040000	  -1.794000;
2	0.0	0.0	3	0.2	77.440000	-113.700000;
	2	 0.0	 0.0	 3	   0.001897	  19.330000	   0.000000;
	2	 0.0	 0.0	 3	   0.001891	  18.070000	   0.000000;
	2	 0.0	 0.0	 3	   0.001893	  18.070000	   0.000000;
	2	 0.0	 0.0	 3	   0.001904	  18.070000	   0.000000;
	2	 0.0	 0.0	 3	   0.001891	  18.070000	   0.000000;
	2	 0.0	 0.0	 3	   0.001698	  16.020000	   0.000000;
	2	 0.0	 0.0	 3	   0.004984	  13.790000	   0.000000;
2	0.0	0.0	3	0.2	18.580000	-140.300000;
2	0.0	0.0	3	0.2	19.860000	-235.800000;
2	0.0	0.0	3	0.2	25.200000	-25.830000;
	2	 0.0	 0.0	 3	   0.079740	  29.580000	  -5.292000;
2	0.0	0.0	3	0.2	16.430000	0.000000;
2	0.0	0.0	3	0.2	16.430000	0.000000;
2	0.0	0.0	3	0.2	16.430000	0.000000;
2	0.0	0.0	3	0.2	16.430000	0.000000;
2	0.0	0.0	3	0.2	16.430000	0.000000;
2	0.0	0.0	3	0.2	16.430000	0.000000;
2	0.0	0.0	3	0.2	16.430000	0.000000;
2	0.0	0.0	3	0.2	16.430000	0.000000;
2	0.0	0.0	3	0.2	18.390000	-65.210000;
2	0.0	0.0	3	0.2	23.630000	-74.490000;
2	0.0	0.0	3	0.2	19.270000	-52.910000;
2	0.0	0.0	3	0.2	12.410000	-22.380000;
2	0.0	0.0	3	0.2	0.050000	-2.245000;
2	0.0	0.0	3	0.2	0.050000	-2.245000;
2	0.0	0.0	3	0.2	0.050000	-2.245000;
2	0.0	0.0	3	0.2	0.050000	-2.245000;
2	0.0	0.0	3	0.2	0.050000	-2.245000;
2	0.0	0.0	3	0.2	0.050000	-2.245000;
2	0.0	0.0	3	0.2	16.260000	-5.080000;
2	0.0	0.0	3	0.2	16.260000	-5.080000;
2	0.0	0.0	3	0.2	16.270000	-5.450000;
2	0.0	0.0	3	0.2	16.270000	-5.450000;
2	0.0	0.0	3	0.2	16.270000	-5.450000;
2	0.0	0.0	3	0.2	18.160000	-20.840000;
2	0.0	0.0	3	0.2	83.160000	-84.530000;
2	0.0	0.0	3	0.2	8.033000	-167.000000;
2	0.0	0.0	3	0.2	18.770000	-5.544000;
2	0.0	0.0	3	0.2	18.450000	-5.544000;
2	0.0	0.0	3	0.2	20.120000	-5.544000;
2	0.0	0.0	3	0.2	21.350000	-5.544000;
2	0.0	0.0	3	0.2	20.210000	-5.544000;
2	0.0	0.0	3	0.2	19.560000	-5.544000;
2	0.0	0.0	3	0.2	22.480000	-268.300000;
2	0.0	0.0	3	0.2	22.480000	-268.300000;
2	0.0	0.0	3	0.2	25.920000	-39.060000;
2	0.0	0.0	3	0.2	81.460000	-82.010000;
2	0.0	0.0	3	0.2	73.550000	-85.710000;
2	0.0	0.0	3	0.2	71.640000	-85.710000;
2	0.0	0.0	3	0.2	22.520000	-39.060000;
2	0.0	0.0	3	0.2	20.110000	-40.050000;
2	0.0	0.0	3	0.2	20.800000	-40.050000;
2	0.0	0.0	3	0.2	20.570000	-40.050000;
2	0.0	0.0	3	0.2	20.740000	-40.050000;
	2	 0.0	 0.0	 3	   0.026400	  14.010000	  -4.127000;
2	0.0	0.0	3	0.2	20.170000	-39.060000;
2	0.0	0.0	3	0.2	28.560000	-75.870000;
2	0.0	0.0	3	0.2	29.080000	-75.870000;
2	0.0	0.0	3	0.2	29.480000	-65.300000;
2	0.0	0.0	3	0.2	29.480000	-65.300000;
2	0.0	0.0	3	0.2	36.580000	-6.800000;
2	0.0	0.0	3	0.2	36.580000	-6.800000;
2	0.0	0.0	3	0.2	36.580000	-6.800000;
2	0.0	0.0	3	0.2	43.930000	-23.140000;
2	0.0	0.0	3	0.2	11.580000	-10.160000;
2	0.0	0.0	3	0.2	11.580000	-10.160000;
2	0.0	0.0	3	0.2	11.580000	-10.160000;
2	0.0	0.0	3	0.2	12.460000	0.000000;
2	0.0	0.0	3	0.2	12.460000	0.000000;
2	0.0	0.0	3	0.2	12.460000	0.000000;
2	0.0	0.0	3	0.2	13.490000	-5.483000;
2	0.0	0.0	3	0.2	0.050000	-2.245000;
2	0.0	0.0	3	0.2	0.050000	-2.245000;
2	0.0	0.0	3	0.2	0.050000	-2.245000;
2	0.0	0.0	3	0.2	15.360000	-3.984000;
2	0.0	0.0	3	0.2	15.420000	-5.656000;
2	0.0	0.0	3	0.2	11.620000	-3.499000;
2	0.0	0.0	3	0.2	11.620000	-3.499000;
2	0.0	0.0	3	0.2	11.620000	-3.499000;
2	0.0	0.0	3	0.2	11.620000	-3.499000;
2	0.0	0.0	3	0.2	0.050000	0.000000;
2	0.0	0.0	3	0.2	0.050000	0.000000;
2	0.0	0.0	3	0.2	0.050000	0.000000;
2	0.0	0.0	3	0.2	13.230000	0.000000;
2	0.0	0.0	3	0.2	13.230000	0.000000;
2	0.0	0.0	3	0.2	0.050000	-1.660000;
2	0.0	0.0	3	0.2	0.050000	-1.660000;
2	0.0	0.0	3	0.2	0.050000	-1.660000;
2	0.0	0.0	3	0.2	13.650000	-2.974000;
2	0.0	0.0	3	0.2	13.660000	-3.102000;
2	0.0	0.0	3	0.2	13.670000	-3.258000;
2	0.0	0.0	3	0.2	13.670000	-3.258000;
2	0.0	0.0	3	0.2	16.440000	-2.824000;
2	0.0	0.0	3	0.2	16.470000	-3.470000;
2	0.0	0.0	3	0.2	16.490000	-3.968000;
2	0.0	0.0	3	0.2	16.490000	-3.968000;
2	0.0	0.0	3	0.2	11.540000	-3.248000;
2	0.0	0.0	3	0.2	11.590000	-4.495000;
2	0.0	0.0	3	0.2	11.590000	-4.543000;
2	0.0	0.0	3	0.2	10.970000	-2.115000;
2	0.0	0.0	3	0.2	0.050000	-1.395000;
2	0.0	0.0	3	0.2	0.003105	0.000000;
2	0.0	0.0	3	0.2	0.050000	-1.245000;
2	0.0	0.0	3	0.2	0.050000	-1.245000;
2	0.0	0.0	3	0.2	0.050000	-1.245000;
2	0.0	0.0	3	0.2	0.002564	0.000000;
2	0.0	0.0	3	0.2	19.250000	-9.504000;
2	0.0	0.0	3	0.2	14.470000	-1.858000;
2	0.0	0.0	3	0.2	14.470000	-1.858000;
2	0.0	0.0	3	0.2	14.490000	-2.282000;
2	0.0	0.0	3	0.2	14.490000	-2.339000;
2	0.0	0.0	3	0.2	16.000000	0.000000;
2	0.0	0.0	3	0.2	16.000000	0.000000;
2	0.0	0.0	3	0.2	39.750000	-40.340000;
2	0.0	0.0	3	0.2	43.470000	-21.430000;
2	0.0	0.0	3	0.2	0.005556	0.000000;
2	0.0	0.0	3	0.2	0.005556	0.000000;
2	0.0	0.0	3	0.2	0.005556	0.000000;
2	0.0	0.0	3	0.2	0.005556	0.000000;
2	0.0	0.0	3	0.2	0.005556	0.000000;
2	0.0	0.0	3	0.2	0.005556	0.000000;
2	0.0	0.0	3	0.2	0.005556	0.000000;
2	0.0	0.0	3	0.2	0.005556	0.000000;
2	0.0	0.0	3	0.2	0.005556	0.000000;
2	0.0	0.0	3	0.2	0.005556	0.000000;
2	0.0	0.0	3	0.2	0.005556	0.000000;
2	0.0	0.0	3	0.2	21.790000	-559.200000;
2	0.0	0.0	3	0.2	21.790000	-556.300000;
2	0.0	0.0	3	0.2	82.530000	-113.000000;
2	0.0	0.0	3	0.2	78.590000	-97.990000;
2	0.0	0.0	3	0.2	88.640000	-97.990000;
2	0.0	0.0	3	0.2	81.990000	-97.990000;
2	0.0	0.0	3	0.2	86.010000	-97.990000;
2	0.0	0.0	3	0.2	16.050000	-397.600000;
	2	 0.0	 0.0	 3	   0.002735	  17.410000	   0.000000;
	2	 0.0	 0.0	 3	   0.001989	  16.970000	   0.000000;
2	0.0	0.0	3	0.2	19.050000	-285.900000;
2	0.0	0.0	3	0.2	19.050000	-285.900000;
	2	 0.0	 0.0	 3	   0.003851	  17.900000	   0.000000;
2	0.0	0.0	3	0.2	18.360000	-334.000000;
2	0.0	0.0	3	0.2	18.600000	-253.600000;
2	0.0	0.0	3	0.2	18.380000	-194.700000;
2	0.0	0.0	3	0.2	18.080000	-184.100000;
2	0.0	0.0	3	0.2	79.090000	-154.100000;
2	0.0	0.0	3	0.2	72.560000	-132.600000;
2	0.0	0.0	3	0.2	22.610000	-180.000000;
2	0.0	0.0	3	0.2	17.060000	-154.800000;
2	0.0	0.0	3	0.2	19.430000	-121.700000;
2	0.0	0.0	3	0.2	22.410000	-123.900000;
2	0.0	0.0	3	0.2	22.320000	-109.100000;
2	0.0	0.0	3	0.2	22.190000	-102.000000;
2	0.0	0.0	3	0.2	22.300000	-119.400000;
2	0.0	0.0	3	0.2	22.190000	-102.000000;
2	0.0	0.0	3	0.2	22.190000	-102.000000;
2	0.0	0.0	3	0.2	22.190000	-102.000000;
2	0.0	0.0	3	0.2	22.190000	-102.000000;
2	0.0	0.0	3	0.2	22.190000	-102.000000;
2	0.0	0.0	3	0.2	22.190000	-102.000000;
2	0.0	0.0	3	0.2	22.190000	-102.000000;
2	0.0	0.0	3	0.2	22.190000	-102.000000;
2	0.0	0.0	3	0.2	19.820000	-114.500000;
2	0.0	0.0	3	0.2	20.910000	-126.800000;
2	0.0	0.0	3	0.2	21.990000	-114.500000;
	2	 0.0	 0.0	 3	   0.002667	  20.080000	   0.000000;
2	0.0	0.0	3	0.2	21.700000	-73.620000;
2	0.0	0.0	3	0.2	20.790000	-56.520000;
2	0.0	0.0	3	0.2	22.930000	-58.470000;
2	0.0	0.0	3	0.2	23.450000	-58.470000;
2	0.0	0.0	3	0.2	22.720000	-58.470000;
2	0.0	0.0	3	0.2	23.480000	-58.470000;
2	0.0	0.0	3	0.2	78.180000	-133.100000;
2	0.0	0.0	3	0.2	73.890000	-106.000000;
2	0.0	0.0	3	0.2	20.780000	-67.080000;
2	0.0	0.0	3	0.2	16.890000	-172.200000;
2	0.0	0.0	3	0.2	23.940000	-44.090000;
2	0.0	0.0	3	0.2	23.300000	-44.090000;
2	0.0	0.0	3	0.2	23.720000	-50.170000;
2	0.0	0.0	3	0.2	22.910000	-50.170000;
2	0.0	0.0	3	0.2	22.720000	-30.680000;
2	0.0	0.0	3	0.2	21.290000	0.000000;
2	0.0	0.0	3	0.2	76.020000	-25.330000;
2	0.0	0.0	3	0.2	78.200000	-25.330000;
	2	 0.0	 0.0	 3	   0.004759	  74.370000	   0.000000;
	2	 0.0	 0.0	 3	   0.035930	  35.940000	  -1.194000;
2	0.0	0.0	3	0.2	24.160000	-32.390000;
2	0.0	0.0	3	0.2	26.080000	-32.390000;
2	0.0	0.0	3	0.2	24.260000	-32.390000;
2	0.0	0.0	3	0.2	27.960000	-32.390000;
2	0.0	0.0	3	0.2	28.080000	-32.390000;
2	0.0	0.0	3	0.2	25.040000	-32.390000;
2	0.0	0.0	3	0.2	26.190000	-32.390000;
2	0.0	0.0	3	0.2	25.420000	-32.390000;
2	0.0	0.0	3	0.2	19.390000	-37.780000;
2	0.0	0.0	3	0.2	19.640000	-37.780000;
2	0.0	0.0	3	0.2	0.050000	-1.620000;
2	0.0	0.0	3	0.2	0.050000	-1.620000;
2	0.0	0.0	3	0.2	0.050000	-1.620000;
...
];

%% storage data
%	bus	energy	energy_rating	charge_rating	discharge_rating	thermal_rating	qmin	qmax	r	x	standby_loss	status
mpc.storage = [
	75898	0.0	0.0	1.00	634.5120	317.2560	228.4243	0.9	0.85	1000	-1000	1000	0.1	0.01	0	0	1;
	37460	0.0	0.0	1.00	560.1330	280.0665	201.6479	0.9	0.85	1000	-1000	1000	0.1	0.01	0	0	1;
	76682	0.0	0.0	1.00	413.5995	206.7998	148.8958	0.9	0.85	1000	-1000	1000	0.1	0.01	0	0	1;
	75575	0.0	0.0	1.00	360.9090	180.4545	129.9272	0.9	0.85	1000	-1000	1000	0.1	0.01	0	0	1;
	76679	0.0	0.0	1.00	350.6220	175.3110	126.2239	0.9	0.85	1000	-1000	1000	0.1	0.01	0	0	1;
	75972	0.0	0.0	1.00	320.8710	160.4355	115.5136	0.9	0.85	1000	-1000	1000	0.1	0.01	0	0	1;
	39338	0.0	0.0	1.00	302.3805	151.1902	108.8570	0.9	0.85	1000	-1000	1000	0.1	0.01	0	0	1;
	75630	0.0	0.0	1.00	295.2900	147.6450	106.3044	0.9	0.85	1000	-1000	1000	0.1	0.01	0	0	1;
	37069	0.0	0.0	1.00	273.6015	136.8007	98.4965	0.9	0.85	1000	-1000	1000	0.1	0.01	0	0	1;
	76217	0.0	0.0	1.00	246.6315	123.3157	88.7873	0.9	0.85	1000	-1000	1000	0.1	0.01	0	0	1;
	76628	0.0	0.0	1.00	243.5715	121.7858	87.6857	0.9	0.85	1000	-1000	1000	0.1	0.01	0	0	1;
	36685	0.0	0.0	1.00	241.2090	120.6045	86.8352	0.9	0.85	1000	-1000	1000	0.1	0.01	0	0	1;
	76369	0.0	0.0	1.00	231.8940	115.9470	83.4818	0.9	0.85	1000	-1000	1000	0.1	0.01	0	0	1;
	75907	0.0	0.0	1.00	203.2545	101.6272	73.1716	0.9	0.85	1000	-1000	1000	0.1	0.01	0	0	1;
	76677	0.0	0.0	1.00	193.6620	96.8310	69.7183	0.9	0.85	1000	-1000	1000	0.1	0.01	0	0	1;
	38721	0.0	0.0	1.00	191.0205	95.5102	68.7674	0.9	0.85	1000	-1000	1000	0.1	0.01	0	0	1;
	37632	0.0	0.0	1.00	190.7430	95.3715	68.6675	0.9	0.85	1000	-1000	1000	0.1	0.01	0	0	1;
	75808	0.0	0.0	1.00	183.7920	91.8960	66.1651	0.9	0.85	1000	-1000	1000	0.1	0.01	0	0	1;
	75647	0.0	0.0	1.00	181.9845	90.9922	65.5144	0.9	0.85	1000	-1000	1000	0.1	0.01	0	0	1;
	75864	0.0	0.0	1.00	175.4505	87.7253	63.1622	0.9	0.85	1000	-1000	1000	0.1	0.01	0	0	1;
	75596	0.0	0.0	1.00	168.2205	84.1103	60.5594	0.9	0.85	1000	-1000	1000	0.1	0.01	0	0	1;
	75902	0.0	0.0	1.00	166.2735	83.1368	59.8585	0.9	0.85	1000	-1000	1000	0.1	0.01	0	0	1;
	38396	0.0	0.0	1.00	166.1355	83.0678	59.8088	0.9	0.85	1000	-1000	1000	0.1	0.01	0	0	1;
	75835	0.0	0.0	1.00	165.9960	82.9980	59.7586	0.9	0.85	1000	-1000	1000	0.1	0.01	0	0	1;
	36790	0.0	0.0	1.00	161.2695	80.6347	58.0570	0.9	0.85	1000	-1000	1000	0.1	0.01	0	0	1;
	75706	0.0	0.0	1.00	156.2640	78.1320	56.2550	0.9	0.85	1000	-1000	1000	0.1	0.01	0	0	1;
	75662	0.0	0.0	1.00	150.5640	75.2820	54.2030	0.9	0.85	1000	-1000	1000	0.1	0.01	0	0	1;
	75651	0.0	0.0	1.00	148.2015	74.1008	53.3525	0.9	0.85	1000	-1000	1000	0.1	0.01	0	0	1;
	76417	0.0	0.0	1.00	146.8110	73.4055	52.8520	0.9	0.85	1000	-1000	1000	0.1	0.01	0	0	1;
	75756	0.0	0.0	1.00	145.2810	72.6405	52.3012	0.9	0.85	1000	-1000	1000	0.1	0.01	0	0	1;
	76115	0.0	0.0	1.00	144.4470	72.2235	52.0009	0.9	0.85	1000	-1000	1000	0.1	0.01	0	0	1;
	36833	0.0	0.0	1.00	137.6355	68.8178	49.5488	0.9	0.85	1000	-1000	1000	0.1	0.01	0	0	1;
	76271	0.0	0.0	1.00	134.8545	67.4273	48.5476	0.9	0.85	1000	-1000	1000	0.1	0.01	0	0	1;
	76427	0.0	0.0	1.00	132.6300	66.3150	47.7468	0.9	0.85	1000	-1000	1000	0.1	0.01	0	0	1;
	37078	0.0	0.0	1.00	129.5715	64.7858	46.6457	0.9	0.85	1000	-1000	1000	0.1	0.01	0	0	1;
	76274	0.0	0.0	1.00	129.1545	64.5772	46.4956	0.9	0.85	1000	-1000	1000	0.1	0.01	0	0	1;
	75579	0.0	0.0	1.00	128.3205	64.1602	46.1954	0.9	0.85	1000	-1000	1000	0.1	0.01	0	0	1;
	75774	0.0	0.0	1.00	126.7905	63.3953	45.6446	0.9	0.85	1000	-1000	1000	0.1	0.01	0	0	1;
	76119	0.0	0.0	1.00	126.0960	63.0480	45.3946	0.9	0.85	1000	-1000	1000	0.1	0.01	0	0	1;
	76616	0.0	0.0	1.00	125.5395	62.7698	45.1942	0.9	0.85	1000	-1000	1000	0.1	0.01	0	0	1;
	76079	0.0	0.0	1.00	120.6735	60.3367	43.4425	0.9	0.85	1000	-1000	1000	0.1	0.01	0	0	1;
	75666	0.0	0.0	1.00	117.6150	58.8075	42.3414	0.9	0.85	1000	-1000	1000	0.1	0.01	0	0	1;
	75777	0.0	0.0	1.00	117.1980	58.5990	42.1913	0.9	0.85	1000	-1000	1000	0.1	0.01	0	0	1;
	76380	0.0	0.0	1.00	116.3640	58.1820	41.8910	0.9	0.85	1000	-1000	1000	0.1	0.01	0	0	1;
	75754	0.0	0.0	1.00	116.2245	58.1123	41.8408	0.9	0.85	1000	-1000	1000	0.1	0.01	0	0	1;
	75993	0.0	0.0	1.00	115.3905	57.6953	41.5406	0.9	0.85	1000	-1000	1000	0.1	0.01	0	0	1;
	75984	0.0	0.0	1.00	115.1130	57.5565	41.4407	0.9	0.85	1000	-1000	1000	0.1	0.01	0	0	1;
	75868	0.0	0.0	1.00	113.4450	56.7225	40.8402	0.9	0.85	1000	-1000	1000	0.1	0.01	0	0	1;
	76239	0.0	0.0	1.00	113.4450	56.7225	40.8402	0.9	0.85	1000	-1000	1000	0.1	0.01	0	0	1;
	76091	0.0	0.0	1.00	112.7490	56.3745	40.5896	0.9	0.85	1000	-1000	1000	0.1	0.01	0	0	1;
	75560	0.0	0.0	1.00	112.1940	56.0970	40.3898	0.9	0.85	1000	-1000	1000	0.1	0.01	0	0	1;
	75758	0.0	0.0	1.00	110.8035	55.4017	39.8893	0.9	0.85	1000	-1000	1000	0.1	0.01	0	0	1;
	76202	0.0	0.0	1.00	109.5525	54.7762	39.4389	0.9	0.85	1000	-1000	1000	0.1	0.01	0	0	1;
	75681	0.0	0.0	1.00	109.2735	54.6368	39.3385	0.9	0.85	1000	-1000	1000	0.1	0.01	0	0	1;
	75820	0.0	0.0	1.00	108.5790	54.2895	39.0884	0.9	0.85	1000	-1000	1000	0.1	0.01	0	0	1;
	75700	0.0	0.0	1.00	107.8830	53.9415	38.8379	0.9	0.85	1000	-1000	1000	0.1	0.01	0	0	1;
	75556	0.0	0.0	1.00	106.6320	53.3160	38.3875	0.9	0.85	1000	-1000	1000	0.1	0.01	0	0	1;
	75858	0.0	0.0	1.00	102.3225	51.1613	36.8361	0.9	0.85	1000	-1000	1000	0.1	0.01	0	0	1;
	76043	0.0	0.0	1.00	102.3225	51.1613	36.8361	0.9	0.85	1000	-1000	1000	0.1	0.01	0	0	1;
	76124	0.0	0.0	1.00	102.3225	51.1613	36.8361	0.9	0.85	1000	-1000	1000	0.1	0.01	0	0	1;
	75619	0.0	0.0	1.00	100.6545	50.3272	36.2356	0.9	0.85	1000	-1000	1000	0.1	0.01	0	0	1;
	75552	0.0	0.0	1.00	100.5150	50.2575	36.1854	0.9	0.85	1000	-1000	1000	0.1	0.01	0	0	1;
	37677	0.0	0.0	1.00	99.5415	49.7708	35.8349	0.9	0.85	1000	-1000	1000	0.1	0.01	0	0	1;
	38602	0.0	0.0	1.00	98.8470	49.4235	35.5849	0.9	0.85	1000	-1000	1000	0.1	0.01	0	0	1;
	76011	0.0	0.0	1.00	98.4300	49.2150	35.4348	0.9	0.85	1000	-1000	1000	0.1	0.01	0	0	1;
	76066	0.0	0.0	1.00	98.4300	49.2150	35.4348	0.9	0.85	1000	-1000	1000	0.1	0.01	0	0	1;
	75960	0.0	0.0	1.00	98.0130	49.0065	35.2847	0.9	0.85	1000	-1000	1000	0.1	0.01	0	0	1;
	76133	0.0	0.0	1.00	97.5960	48.7980	35.1346	0.9	0.85	1000	-1000	1000	0.1	0.01	0	0	1;
	76674	0.0	0.0	1.00	97.4565	48.7283	35.0843	0.9	0.85	1000	-1000	1000	0.1	0.01	0	0	1;
	75627	0.0	0.0	1.00	97.0395	48.5198	34.9342	0.9	0.85	1000	-1000	1000	0.1	0.01	0	0	1;
	76364	0.0	0.0	1.00	97.0395	48.5198	34.9342	0.9	0.85	1000	-1000	1000	0.1	0.01	0	0	1;
	76243	0.0	0.0	1.00	96.7620	48.3810	34.8343	0.9	0.85	1000	-1000	1000	0.1	0.01	0	0	1;
	38574	0.0	0.0	1.00	95.6490	47.8245	34.4336	0.9	0.85	1000	-1000	1000	0.1	0.01	0	0	1;
	37444	0.0	0.0	1.00	95.2320	47.6160	34.2835	0.9	0.85	1000	-1000	1000	0.1	0.01	0	0	1;
	75785	0.0	0.0	1.00	95.2320	47.6160	34.2835	0.9	0.85	1000	-1000	1000	0.1	0.01	0	0	1;
	39636	0.0	0.0	1.00	94.9545	47.4772	34.1836	0.9	0.85	1000	-1000	1000	0.1	0.01	0	0	1;
	76336	0.0	0.0	1.00	94.6755	47.3377	34.0832	0.9	0.85	1000	-1000	1000	0.1	0.01	0	0	1;
	76278	0.0	0.0	1.00	93.7035	46.8518	33.7333	0.9	0.85	1000	-1000	1000	0.1	0.01	0	0	1;
	75586	0.0	0.0	1.00	92.5905	46.2952	33.3326	0.9	0.85	1000	-1000	1000	0.1	0.01	0	0	1;
	36800	0.0	0.0	1.00	92.1735	46.0867	33.1825	0.9	0.85	1000	-1000	1000	0.1	0.01	0	0	1;
	38878	0.0	0.0	1.00	91.8960	45.9480	33.0826	0.9	0.85	1000	-1000	1000	0.1	0.01	0	0	1;
	36974	0.0	0.0	1.00	90.7830	45.3915	32.6819	0.9	0.85	1000	-1000	1000	0.1	0.01	0	0	1;
	76230	0.0	0.0	1.00	90.2280	45.1140	32.4821	0.9	0.85	1000	-1000	1000	0.1	0.01	0	0	1;
	37276	0.0	0.0	1.00	90.0885	45.0442	32.4319	0.9	0.85	1000	-1000	1000	0.1	0.01	0	0	1;
	76033	0.0	0.0	1.00	89.9490	44.9745	32.3816	0.9	0.85	1000	-1000	1000	0.1	0.01	0	0	1;
	36966	0.0	0.0	1.00	89.3925	44.6962	32.1813	0.9	0.85	1000	-1000	1000	0.1	0.01	0	0	1;
	76623	0.0	0.0	1.00	88.2810	44.1405	31.7812	0.9	0.85	1000	-1000	1000	0.1	0.01	0	0	1;
	76325	0.0	0.0	1.00	87.8640	43.9320	31.6310	0.9	0.85	1000	-1000	1000	0.1	0.01	0	0	1;
	37307	0.0	0.0	1.00	87.7245	43.8622	31.5808	0.9	0.85	1000	-1000	1000	0.1	0.01	0	0	1;
	76571	0.0	0.0	1.00	87.0300	43.5150	31.3308	0.9	0.85	1000	-1000	1000	0.1	0.01	0	0	1;
	76272	0.0	0.0	1.00	86.0565	43.0282	30.9803	0.9	0.85	1000	-1000	1000	0.1	0.01	0	0	1;
	75814	0.0	0.0	1.00	85.9170	42.9585	30.9301	0.9	0.85	1000	-1000	1000	0.1	0.01	0	0	1;
	37442	0.0	0.0	1.00	85.6395	42.8197	30.8302	0.9	0.85	1000	-1000	1000	0.1	0.01	0	0	1;
	36665	0.0	0.0	1.00	84.2490	42.1245	30.3296	0.9	0.85	1000	-1000	1000	0.1	0.01	0	0	1;
	75584	0.0	0.0	1.00	83.9715	41.9858	30.2297	0.9	0.85	1000	-1000	1000	0.1	0.01	0	0	1;
	76022	0.0	0.0	1.00	83.9715	41.9858	30.2297	0.9	0.85	1000	-1000	1000	0.1	0.01	0	0	1;
	75701	0.0	0.0	1.00	82.3035	41.1517	29.6293	0.9	0.85	1000	-1000	1000	0.1	0.01	0	0	1;
	38908	0.0	0.0	1.00	82.1640	41.0820	29.5790	0.9	0.85	1000	-1000	1000	0.1	0.01	0	0	1;
	76156	0.0	0.0	1.00	82.1640	41.0820	29.5790	0.9	0.85	1000	-1000	1000	0.1	0.01	0	0	1;
	75770	0.0	0.0	1.00	81.3300	40.6650	29.2788	0.9	0.85	1000	-1000	1000	0.1	0.01	0	0	1;
	75895	0.0	0.0	1.00	81.3300	40.6650	29.2788	0.9	0.85	1000	-1000	1000	0.1	0.01	0	0	1;
	76558	0.0	0.0	1.00	81.3300	40.6650	29.2788	0.9	0.85	1000	-1000	1000	0.1	0.01	0	0	1;
	75781	0.0	0.0	1.00	80.9130	40.4565	29.1287	0.9	0.85	1000	-1000	1000	0.1	0.01	0	0	1;
	76029	0.0	0.0	1.00	80.6340	40.3170	29.0282	0.9	0.85	1000	-1000	1000	0.1	0.01	0	0	1;
	75848	0.0	0.0	1.00	79.6620	39.8310	28.6783	0.9	0.85	1000	-1000	1000	0.1	0.01	0	0	1;
	76097	0.0	0.0	1.00	79.6620	39.8310	28.6783	0.9	0.85	1000	-1000	1000	0.1	0.01	0	0	1;
	76708	0.0	0.0	1.00	78.5490	39.2745	28.2776	0.9	0.85	1000	-1000	1000	0.1	0.01	0	0	1;
	75929	0.0	0.0	1.00	78.2715	39.1358	28.1777	0.9	0.85	1000	-1000	1000	0.1	0.01	0	0	1;
	75696	0.0	0.0	1.00	77.7150	38.8575	27.9774	0.9	0.85	1000	-1000	1000	0.1	0.01	0	0	1;
	75683	0.0	0.0	1.00	77.5755	38.7878	27.9272	0.9	0.85	1000	-1000	1000	0.1	0.01	0	0	1;
	76017	0.0	0.0	1.00	76.6035	38.3017	27.5773	0.9	0.85	1000	-1000	1000	0.1	0.01	0	0	1;
	75980	0.0	0.0	1.00	76.3245	38.1623	27.4768	0.9	0.85	1000	-1000	1000	0.1	0.01	0	0	1;
	75748	0.0	0.0	1.00	76.0470	38.0235	27.3769	0.9	0.85	1000	-1000	1000	0.1	0.01	0	0	1;
	76313	0.0	0.0	1.00	76.0470	38.0235	27.3769	0.9	0.85	1000	-1000	1000	0.1	0.01	0	0	1;
	76027	0.0	0.0	1.00	75.7695	37.8847	27.2770	0.9	0.85	1000	-1000	1000	0.1	0.01	0	0	1;
	39205	0.0	0.0	1.00	75.3510	37.6755	27.1264	0.9	0.85	1000	-1000	1000	0.1	0.01	0	0	1;
	75667	0.0	0.0	1.00	75.2130	37.6065	27.0767	0.9	0.85	1000	-1000	1000	0.1	0.01	0	0	1;
	76186	0.0	0.0	1.00	74.7960	37.3980	26.9266	0.9	0.85	1000	-1000	1000	0.1	0.01	0	0	1;
	39140	0.0	0.0	1.00	74.1000	37.0500	26.6760	0.9	0.85	1000	-1000	1000	0.1	0.01	0	0	1;
	75922	0.0	0.0	1.00	73.6830	36.8415	26.5259	0.9	0.85	1000	-1000	1000	0.1	0.01	0	0	1;
	37064	0.0	0.0	1.00	73.2660	36.6330	26.3758	0.9	0.85	1000	-1000	1000	0.1	0.01	0	0	1;
	76413	0.0	0.0	1.00	72.8490	36.4245	26.2256	0.9	0.85	1000	-1000	1000	0.1	0.01	0	0	1;
	76193	0.0	0.0	1.00	72.7095	36.3547	26.1754	0.9	0.85	1000	-1000	1000	0.1	0.01	0	0	1;
	75823	0.0	0.0	1.00	72.5715	36.2858	26.1257	0.9	0.85	1000	-1000	1000	0.1	0.01	0	0	1;
	76096	0.0	0.0	1.00	71.4585	35.7293	25.7251	0.9	0.85	1000	-1000	1000	0.1	0.01	0	0	1;
	75564	0.0	0.0	1.00	71.1810	35.5905	25.6252	0.9	0.85	1000	-1000	1000	0.1	0.01	0	0	1;
	76499	0.0	0.0	1.00	70.6245	35.3122	25.4248	0.9	0.85	1000	-1000	1000	0.1	0.01	0	0	1;
	36647	0.0	0.0	1.00	70.0680	35.0340	25.2245	0.9	0.85	1000	-1000	1000	0.1	0.01	0	0	1;
	76122	0.0	0.0	1.00	68.9565	34.4782	24.8243	0.9	0.85	1000	-1000	1000	0.1	0.01	0	0	1;
	36684	0.0	0.0	1.00	68.6790	34.3395	24.7244	0.9	0.85	1000	-1000	1000	0.1	0.01	0	0	1;
	38600	0.0	0.0	1.00	67.5660	33.7830	24.3238	0.9	0.85	1000	-1000	1000	0.1	0.01	0	0	1;
	75977	0.0	0.0	1.00	66.4545	33.2272	23.9236	0.9	0.85	1000	-1000	1000	0.1	0.01	0	0	1;
	37417	0.0	0.0	1.00	65.8980	32.9490	23.7233	0.9	0.85	1000	-1000	1000	0.1	0.01	0	0	1;
	37065	0.0	0.0	1.00	65.7585	32.8792	23.6731	0.9	0.85	1000	-1000	1000	0.1	0.01	0	0	1;
	75760	0.0	0.0	1.00	65.6205	32.8102	23.6234	0.9	0.85	1000	-1000	1000	0.1	0.01	0	0	1;
	76371	0.0	0.0	1.00	64.9245	32.4622	23.3728	0.9	0.85	1000	-1000	1000	0.1	0.01	0	0	1;
	37470	0.0	0.0	1.00	64.5075	32.2538	23.2227	0.9	0.85	1000	-1000	1000	0.1	0.01	0	0	1;
	37400	0.0	0.0	1.00	64.3680	32.1840	23.1725	0.9	0.85	1000	-1000	1000	0.1	0.01	0	0	1;
	76360	0.0	0.0	1.00	63.9510	31.9755	23.0224	0.9	0.85	1000	-1000	1000	0.1	0.01	0	0	1;
	76539	0.0	0.0	1.00	63.8130	31.9065	22.9727	0.9	0.85	1000	-1000	1000	0.1	0.01	0	0	1;
	75979	0.0	0.0	1.00	63.3960	31.6980	22.8226	0.9	0.85	1000	-1000	1000	0.1	0.01	0	0	1;
	76698	0.0	0.0	1.00	63.1170	31.5585	22.7221	0.9	0.85	1000	-1000	1000	0.1	0.01	0	0	1;
	76061	0.0	0.0	1.00	62.8395	31.4198	22.6222	0.9	0.85	1000	-1000	1000	0.1	0.01	0	0	1;
	76176	0.0	0.0	1.00	62.8395	31.4198	22.6222	0.9	0.85	1000	-1000	1000	0.1	0.01	0	0	1;
	76466	0.0	0.0	1.00	62.4225	31.2112	22.4721	0.9	0.85	1000	-1000	1000	0.1	0.01	0	0	1;
	76701	0.0	0.0	1.00	62.1450	31.0725	22.3722	0.9	0.85	1000	-1000	1000	0.1	0.01	0	0	1;
	76540	0.0	0.0	1.00	61.7265	30.8633	22.2215	0.9	0.85	1000	-1000	1000	0.1	0.01	0	0	1;
	75742	0.0	0.0	1.00	61.5885	30.7942	22.1719	0.9	0.85	1000	-1000	1000	0.1	0.01	0	0	1;
	75903	0.0	0.0	1.00	61.3095	30.6547	22.0714	0.9	0.85	1000	-1000	1000	0.1	0.01	0	0	1;
	76534	0.0	0.0	1.00	60.6150	30.3075	21.8214	0.9	0.85	1000	-1000	1000	0.1	0.01	0	0	1;
	76195	0.0	0.0	1.00	60.4755	30.2377	21.7712	0.9	0.85	1000	-1000	1000	0.1	0.01	0	0	1;
	75580	0.0	0.0	1.00	60.1980	30.0990	21.6713	0.9	0.85	1000	-1000	1000	0.1	0.01	0	0	1;
	76706	0.0	0.0	1.00	60.0585	30.0293	21.6211	0.9	0.85	1000	-1000	1000	0.1	0.01	0	0	1;
	75818	0.0	0.0	1.00	59.9205	29.9603	21.5714	0.9	0.85	1000	-1000	1000	0.1	0.01	0	0	1;
	76476	0.0	0.0	1.00	59.9205	29.9603	21.5714	0.9	0.85	1000	-1000	1000	0.1	0.01	0	0	1;
	75910	0.0	0.0	1.00	59.5035	29.7517	21.4213	0.9	0.85	1000	-1000	1000	0.1	0.01	0	0	1;
	76101	0.0	0.0	1.00	59.2245	29.6122	21.3208	0.9	0.85	1000	-1000	1000	0.1	0.01	0	0	1;
	76250	0.0	0.0	1.00	59.2245	29.6122	21.3208	0.9	0.85	1000	-1000	1000	0.1	0.01	0	0	1;
	75780	0.0	0.0	1.00	59.0850	29.5425	21.2706	0.9	0.85	1000	-1000	1000	0.1	0.01	0	0	1;
	76071	0.0	0.0	1.00	58.8075	29.4037	21.1707	0.9	0.85	1000	-1000	1000	0.1	0.01	0	0	1;
	37365	0.0	0.0	1.00	58.2510	29.1255	20.9704	0.9	0.85	1000	-1000	1000	0.1	0.01	0	0	1;
	38975	0.0	0.0	1.00	58.2510	29.1255	20.9704	0.9	0.85	1000	-1000	1000	0.1	0.01	0	0	1;
	76448	0.0	0.0	1.00	58.1130	29.0565	20.9207	0.9	0.85	1000	-1000	1000	0.1	0.01	0	0	1;
	75615	0.0	0.0	1.00	57.9735	28.9868	20.8705	0.9	0.85	1000	-1000	1000	0.1	0.01	0	0	1;
	76137	0.0	0.0	1.00	57.8340	28.9170	20.8202	0.9	0.85	1000	-1000	1000	0.1	0.01	0	0	1;
	37404	0.0	0.0	1.00	57.6960	28.8480	20.7706	0.9	0.85	1000	-1000	1000	0.1	0.01	0	0	1;
	75789	0.0	0.0	1.00	57.5565	28.7782	20.7203	0.9	0.85	1000	-1000	1000	0.1	0.01	0	0	1;
	37397	0.0	0.0	1.00	57.4170	28.7085	20.6701	0.9	0.85	1000	-1000	1000	0.1	0.01	0	0	1;
	76702	0.0	0.0	1.00	57.4170	28.7085	20.6701	0.9	0.85	1000	-1000	1000	0.1	0.01	0	0	1;
	37487	0.0	0.0	1.00	57.2790	28.6395	20.6204	0.9	0.85	1000	-1000	1000	0.1	0.01	0	0	1;
	76248	0.0	0.0	1.00	57.2790	28.6395	20.6204	0.9	0.85	1000	-1000	1000	0.1	0.01	0	0	1;
	36845	0.0	0.0	1.00	57.1395	28.5698	20.5702	0.9	0.85	1000	-1000	1000	0.1	0.01	0	0	1;
	76132	0.0	0.0	1.00	57.0000	28.5000	20.5200	0.9	0.85	1000	-1000	1000	0.1	0.01	0	0	1;
	38843	0.0	0.0	1.00	56.4450	28.2225	20.3202	0.9	0.85	1000	-1000	1000	0.1	0.01	0	0	1;
	76619	0.0	0.0	1.00	56.4450	28.2225	20.3202	0.9	0.85	1000	-1000	1000	0.1	0.01	0	0	1;
	76247	0.0	0.0	1.00	56.3055	28.1527	20.2700	0.9	0.85	1000	-1000	1000	0.1	0.01	0	0	1;
	37535	0.0	0.0	1.00	56.0265	28.0132	20.1695	0.9	0.85	1000	-1000	1000	0.1	0.01	0	0	1;
	39329	0.0	0.0	1.00	56.0265	28.0132	20.1695	0.9	0.85	1000	-1000	1000	0.1	0.01	0	0	1;
	76127	0.0	0.0	1.00	55.8885	27.9443	20.1199	0.9	0.85	1000	-1000	1000	0.1	0.01	0	0	1;
	76494	0.0	0.0	1.00	55.7490	27.8745	20.0696	0.9	0.85	1000	-1000	1000	0.1	0.01	0	0	1;
	76075	0.0	0.0	1.00	55.4715	27.7358	19.9697	0.9	0.85	1000	-1000	1000	0.1	0.01	0	0	1;
	75561	0.0	0.0	1.00	55.3320	27.6660	19.9195	0.9	0.85	1000	-1000	1000	0.1	0.01	0	0	1;
	75884	0.0	0.0	1.00	55.0545	27.5273	19.8196	0.9	0.85	1000	-1000	1000	0.1	0.01	0	0	1;
	76367	0.0	0.0	1.00	55.0545	27.5273	19.8196	0.9	0.85	1000	-1000	1000	0.1	0.01	0	0	1;
	39467	0.0	0.0	1.00	54.9150	27.4575	19.7694	0.9	0.85	1000	-1000	1000	0.1	0.01	0	0	1;
	75809	0.0	0.0	1.00	54.9150	27.4575	19.7694	0.9	0.85	1000	-1000	1000	0.1	0.01	0	0	1;
	38453	0.0	0.0	1.00	54.7755	27.3878	19.7192	0.9	0.85	1000	-1000	1000	0.1	0.01	0	0	1;
	75670	0.0	0.0	1.00	54.6375	27.3187	19.6695	0.9	0.85	1000	-1000	1000	0.1	0.01	0	0	1;
	36657	0.0	0.0	1.00	54.4980	27.2490	19.6193	0.9	0.85	1000	-1000	1000	0.1	0.01	0	0	1;
	76712	0.0	0.0	1.00	54.3585	27.1792	19.5691	0.9	0.85	1000	-1000	1000	0.1	0.01	0	0	1;
	75583	0.0	0.0	1.00	54.2205	27.1103	19.5194	0.9	0.85	1000	-1000	1000	0.1	0.01	0	0	1;
	76002	0.0	0.0	1.00	54.2205	27.1103	19.5194	0.9	0.85	1000	-1000	1000	0.1	0.01	0	0	1;
	76240	0.0	0.0	1.00	54.0810	27.0405	19.4692	0.9	0.85	1000	-1000	1000	0.1	0.01	0	0	1;
	76297	0.0	0.0	1.00	54.0810	27.0405	19.4692	0.9	0.85	1000	-1000	1000	0.1	0.01	0	0	1;
	75613	0.0	0.0	1.00	53.9415	26.9707	19.4189	0.9	0.85	1000	-1000	1000	0.1	0.01	0	0	1;
	37361	0.0	0.0	1.00	53.8035	26.9017	19.3693	0.9	0.85	1000	-1000	1000	0.1	0.01	0	0	1;
	76479	0.0	0.0	1.00	53.6640	26.8320	19.3190	0.9	0.85	1000	-1000	1000	0.1	0.01	0	0	1;
	39158	0.0	0.0	1.00	53.1075	26.5538	19.1187	0.9	0.85	1000	-1000	1000	0.1	0.01	0	0	1;
	75819	0.0	0.0	1.00	52.9680	26.4840	19.0685	0.9	0.85	1000	-1000	1000	0.1	0.01	0	0	1;
	75749	0.0	0.0	1.00	52.8300	26.4150	19.0188	0.9	0.85	1000	-1000	1000	0.1	0.01	0	0	1;
...
];

%% branch data
%	fbus	tbus	r	x	b	rateA	rateB	rateC	ratio	angle	status	angmin	angmax
mpc.branch = [
	35308	 36653	 0.000996849	 0.00712763	 0.260677	 795.0	 795.0	 795.0	 0.0	 0.0	 1	 -30.0	 30.0;
	35308	 75572	 0.000858146	 0.00613538	 0.224361	 795.0	 795.0	 795.0	 0.0	 0.0	 1	 -30.0	 30.0;
	35308	 75628	 0.00141505	 0.0101211	 0.370328	 795.0	 795.0	 795.0	 0.0	 0.0	 1	 -30.0	 30.0;
	35309	 37399	 0.000342626	 0.00634921	 0.419454	 1216.0	 1216.0	 1216.0	 0.0	 0.0	 1	 -30.0	 30.0;
	35309	 37480	 0.00120626	 0.021683	 1.55189	 1216.0	 1216.0	 1216.0	 0.0	 0.0	 1	 -30.0	 30.0;
	35309	 37678	 0.000627527	 0.0112331	 0.799013	 1801.0	 1801.0	 1801.0	 0.0	 0.0	 1	 -30.0	 30.0;
	35309	 75435	 1e-07	 0.0001	 0.0	 1450.0	 1812.5	 2175.0	 0.0	 0.0	 1	 -30.0	 30.0;
	35309	 75435	 1e-07	 0.0001	 0.0	 1450.0	 1812.5	 2175.0	 0.0	 0.0	 1	 -30.0	 30.0;
	35309	 75435	 1e-07	 0.0001	 0.0	 1450.0	 1812.5	 2175.0	 0.0	 0.0	 1	 -30.0	 30.0;
	35310	 37534	 0.000142702	 0.00264344	 0.174541	 2639.0	 2639.0	 2639.0	 0.0	 0.0	 1	 -30.0	 30.0;
	35310	 75439	 1e-07	 0.0001	 0.0	 1350.0	 1687.5	 2025.0	 0.0	 0.0	 1	 -30.0	 30.0;
	35310	 75439	 1e-07	 0.0001	 0.0	 1350.0	 1687.5	 2025.0	 0.0	 0.0	 1	 -30.0	 30.0;
	35311	 36648	 0.000504187	 0.00902042	 0.641111	 1801.0	 1801.0	 1801.0	 0.0	 0.0	 1	 -30.0	 30.0;
	35311	 36774	 0.000128692	 0.00230036	 0.163273	 1925.0	 1925.0	 1925.0	 0.0	 0.0	 1	 -30.0	 30.0;
	35311	 36974	 0.000139305	 0.00258051	 0.170384	 1273.0	 1273.0	 1273.0	 0.0	 0.0	 1	 -30.0	 30.0;
	35312	 37031	 0.00126359	 0.0227264	 1.62794	 1216.0	 1216.0	 1216.0	 0.0	 0.0	 1	 -30.0	 30.0;
	35312	 37069	 0.000789981	 0.0146676	 0.971817	 1216.0	 1216.0	 1216.0	 0.0	 0.0	 1	 -30.0	 30.0;
	35312	 37680	 0.000874784	 0.0156817	 1.11783	 1216.0	 1216.0	 1216.0	 0.0	 0.0	 1	 -30.0	 30.0;
	35313	 37017	 0.000697634	 0.00498739	 0.18236	 795.0	 795.0	 795.0	 0.0	 0.0	 1	 -30.0	 30.0;
	35313	 37254	 3.55042e-05	 0.000322542	 0.0121614	 907.0	 907.0	 907.0	 0.0	 0.0	 1	 -30.0	 30.0;
	35313	 37276	 0.000654348	 0.00467785	 0.171037	 795.0	 795.0	 795.0	 0.0	 0.0	 1	 -30.0	 30.0;
	35313	 37281	 0.000489084	 0.0056055	 0.219983	 1067.0	 1067.0	 1067.0	 0.0	 0.0	 1	 -30.0	 30.0;
	35314	 36648	 0.000887923	 0.0159187	 1.13488	 1216.0	 1216.0	 1216.0	 0.0	 0.0	 1	 -30.0	 30.0;
	35314	 37471	 6.94343e-05	 0.00124107	 0.0880822	 1216.0	 1216.0	 1216.0	 0.0	 0.0	 1	 -30.0	 30.0;
	35314	 37617	 0.000997355	 0.0178951	 1.27731	 1216.0	 1216.0	 1216.0	 0.0	 0.0	 1	 -30.0	 30.0;
	35314	 75449	 1e-07	 0.0001	 0.0	 800.0	 1000.0	 1200.0	 0.0	 0.0	 1	 -30.0	 30.0;
	35314	 75449	 1e-07	 0.0001	 0.0	 800.0	 1000.0	 1200.0	 0.0	 0.0	 1	 -30.0	 30.0;
...